





                                  ****
                                *      *
                               *        *
                               *  N A S T R A N
                               *        *
                                *      *
                                  ****


                             SUN COMPUTER SYSTEMS    
                                SOLARIS VERSION

                          SYSTEM RELEASE -  1995 ED.

                                DISTRIBUTED BY

         COMPUTER SOFTWARE MANAGEMENT AND INFORMATION CENTER (COSMIC)
                 UNIVERSITY OF GEORGIA, ATHENS, GEORGIA 30602
                 PHONE: (706)542-3265      FAX: (706)542-4807
1                                                                           /    95 SUN SOLARIS NASTRAN    / MAY 17, 95 / PAGE     2
                                                                                                                                    
0                                                                                                                                   
                                                                                                         
                                                                                                         
                         INSTALLATION CENTER USER INFORMATION GIVEN IN THIS SECTION                      
                                                                                                         
                                     *********************************************                       
                                     *                                           *                       
                                     *  PLEASE READ THE COMMENT IN DEMO PROBLEM  *                       
                                     *  D01002A ABOUT SYSTEM TIMING CONSTANTS    *                       
                                     *                                           *                       
                                     *********************************************                       
                                                                                                         
                         ===X=    TOP OF PAGE REQUEST IF 'X' IS REPLACED BY '='                          
                                                                                                         
1                                                                           /    95 SUN SOLARIS NASTRAN    / MAY 17, 95 / PAGE     3
                                                                                                                                    
0                                                                                                                                   
0*** USER INFORMATION MESSAGE 225, GINO TIME CONSTANTS ARE BEING COMPUTED
     (SEE NASINFO FILE FOR ELIMINATION OF THESE COMPUTATIONS)
1                                                                           /    95 SUN SOLARIS NASTRAN    / MAY 17, 95 / PAGE     4
                                                                                                                                    
0        N A S T R A N    E X E C U T I V E    C O N T R O L    D E C K    E C H O                                                  
0                                                                                                                                   
                                                                                                                                    
                                                                                                                                    
     ID    D01091A,NASTRAN                                                           
     APP   DISP                                                                      
     SOL   1,3                                                                       
     TIME  15                                                                        
     CEND                                                                            


0*** USER INFORMATION MESSAGE, TURN DIAG 48 ON FOR NASTRAN RELEASE NEWS, DIAG DEFINITION, NEW DMAP
         MODULES AND NEW BULKDATA CARDS INFORMATION
1     2 X 2 X 10  FIXED-FREE BEAM USING RECTANGULAR CHEXA2 ELEMENTS         /    95 SUN SOLARIS NASTRAN    / MAY 17, 95 / PAGE     5
      NASTRAN DEMONSTRATION PROBLEM NO. D01-09-1A                                                                                   
0     TWO PLANES OF SYMMETRY                                                                                                        
0                                        C A S E    C O N T R O L   D E C K   E C H O                                               
                 CARD                                                                                                               
                 COUNT                                                                                                              
                  1      TITLE    = 2 X 2 X 10  FIXED-FREE BEAM USING RECTANGULAR CHEXA2 ELEMENTS.       
                  2      SUBTITLE = NASTRAN DEMONSTRATION PROBLEM NO. D01-09-1A                          
                  3      LABEL    = TWO PLANES OF SYMMETRY                                               
                  4      SPC = 2                                                                         
                  5         OUTPUT                                                                       
                  6              DISPLACEMENTS = ALL                                                     
                  7              OLOAD = ALL                                                             
                  8      SUBCASE 1                                                                       
                  9              LOAD = 20                                                               
                 10              LABEL = UNIFORM STRESS.                                                 
                 11              SPCFORCE = ALL                                                          
                 12              STRESS = ALL                                                            
                 13      SUBCASE 2                                                                       
                 14              TEMPERATURE(LOAD) = 30                                                  
                 15              LABEL = UNIFORM TEMPERATURE LOAD.                                       
                 16      BEGIN BULK                                                                      


                        (NO. OF UNSORTED BULK DATA CARDS READ =   206, INCLUDING   0 COMMENT CARDS)
0*** USER INFORMATION MESSAGE 207, BULK DATA DECK IS NOT SORTED. NASTRAN WILL RE-ORDER THE INPUT DECK.
1     2 X 2 X 10  FIXED-FREE BEAM USING RECTANGULAR CHEXA2 ELEMENTS         /    95 SUN SOLARIS NASTRAN    / MAY 17, 95 / PAGE     6
      NASTRAN DEMONSTRATION PROBLEM NO. D01-09-1A                                                                                   
0     TWO PLANES OF SYMMETRY                                                                                                        
0                                                 S O R T E D   B U L K    D A T A    E C H O                                       
                     CARD                                                                                                           
                     COUNT        ---1--- +++2+++ ---3--- +++4+++ ---5--- +++6+++ ---7--- +++8+++ ---9--- +++10+++                  
                    1-        CHEXA2  1       1       1       2       5       4       10      11      +HEX   1
                    2-        +HEX   114      13                                                              
                    3-        CHEXA2  2       1       2       3       6       5       11      12      +HEX   2
                    4-        +HEX   215      14                                                              
                    5-        CHEXA2  3       1       4       5       8       7       13      14      +HEX   3
                    6-        +HEX   317      16                                                              
                    7-        CHEXA2  4       1       5       6       9       8       14      15      +HEX   4
                    8-        +HEX   418      17                                                              
                    9-        CHEXA2  5       1       10      11      14      13      19      20      +HEX   5
                   10-        +HEX   523      22                                                              
                   11-        CHEXA2  6       1       11      12      15      14      20      21      +HEX   6
                   12-        +HEX   624      23                                                              
                   13-        CHEXA2  7       1       13      14      17      16      22      23      +HEX   7
                   14-        +HEX   726      25                                                              
                   15-        CHEXA2  8       1       14      15      18      17      23      24      +HEX   8
                   16-        +HEX   827      26                                                              
                   17-        CHEXA2  9       1       19      20      23      22      28      29      +HEX   9
                   18-        +HEX   932      31                                                              
                   19-        CHEXA2  10      1       20      21      24      23      29      30      +HEX  10
                   20-        +HEX  1033      32                                                              
                   21-        CHEXA2  11      1       22      23      26      25      31      32      +HEX  11
                   22-        +HEX  1135      34                                                              
                   23-        CHEXA2  12      1       23      24      27      26      32      33      +HEX  12
                   24-        +HEX  1236      35                                                              
                   25-        CHEXA2  13      1       28      29      32      31      37      38      +HEX  13
                   26-        +HEX  1341      40                                                              
                   27-        CHEXA2  14      1       29      30      33      32      38      39      +HEX  14
                   28-        +HEX  1442      41                                                              
                   29-        CHEXA2  15      1       31      32      35      34      40      41      +HEX  15
                   30-        +HEX  1544      43                                                              
                   31-        CHEXA2  16      1       32      33      36      35      41      42      +HEX  16
                   32-        +HEX  1645      44                                                              
                   33-        CHEXA2  17      1       37      38      41      40      46      47      +HEX  17
                   34-        +HEX  1750      49                                                              
                   35-        CHEXA2  18      1       38      39      42      41      47      48      +HEX  18
                   36-        +HEX  1851      50                                                              
                   37-        CHEXA2  19      1       40      41      44      43      49      50      +HEX  19
                   38-        +HEX  1953      52                                                              
                   39-        CHEXA2  20      1       41      42      45      44      50      51      +HEX  20
                   40-        +HEX  2054      53                                                              
                   41-        CHEXA2  21      1       46      47      50      49      55      56      +HEX  21
                   42-        +HEX  2159      58                                                              
                   43-        CHEXA2  22      1       47      48      51      50      56      57      +HEX  22
                   44-        +HEX  2260      59                                                              
                   45-        CHEXA2  23      1       49      50      53      52      58      59      +HEX  23
                   46-        +HEX  2362      61                                                              
                   47-        CHEXA2  24      1       50      51      54      53      59      60      +HEX  24
1     2 X 2 X 10  FIXED-FREE BEAM USING RECTANGULAR CHEXA2 ELEMENTS         /    95 SUN SOLARIS NASTRAN    / MAY 17, 95 / PAGE     7
      NASTRAN DEMONSTRATION PROBLEM NO. D01-09-1A                                                                                   

      TWO PLANES OF SYMMETRY                                                                                                        

                                                  S O R T E D   B U L K    D A T A    E C H O                                       
                     CARD                                                                                                           
                     COUNT        ---1--- +++2+++ ---3--- +++4+++ ---5--- +++6+++ ---7--- +++8+++ ---9--- +++10+++                  
                   48-        +HEX  2463      62                                                              
                   49-        CHEXA2  25      1       55      56      59      58      64      65      +HEX  25
                   50-        +HEX  2568      67                                                              
                   51-        CHEXA2  26      1       56      57      60      59      65      66      +HEX  26
                   52-        +HEX  2669      68                                                              
                   53-        CHEXA2  27      1       58      59      62      61      67      68      +HEX  27
                   54-        +HEX  2771      70                                                              
                   55-        CHEXA2  28      1       59      60      63      62      68      69      +HEX  28
                   56-        +HEX  2872      71                                                              
                   57-        CHEXA2  29      1       64      65      68      67      73      74      +HEX  29
                   58-        +HEX  2977      76                                                              
                   59-        CHEXA2  30      1       65      66      69      68      74      75      +HEX  30
                   60-        +HEX  3078      77                                                              
                   61-        CHEXA2  31      1       67      68      71      70      76      77      +HEX  31
                   62-        +HEX  3180      79                                                              
                   63-        CHEXA2  32      1       68      69      72      71      77      78      +HEX  32
                   64-        +HEX  3281      80                                                              
                   65-        CHEXA2  33      1       73      74      77      76      82      83      +HEX  33
                   66-        +HEX  3386      85                                                              
                   67-        CHEXA2  34      1       74      75      78      77      83      84      +HEX  34
                   68-        +HEX  3487      86                                                              
                   69-        CHEXA2  35      1       76      77      80      79      85      86      +HEX  35
                   70-        +HEX  3589      88                                                              
                   71-        CHEXA2  36      1       77      78      81      80      86      87      +HEX  36
                   72-        +HEX  3690      89                                                              
                   73-        CHEXA2  37      1       82      83      86      85      91      92      +HEX  37
                   74-        +HEX  3795      94                                                              
                   75-        CHEXA2  38      1       83      84      87      86      92      93      +HEX  38
                   76-        +HEX  3896      95                                                              
                   77-        CHEXA2  39      1       85      86      89      88      94      95      +HEX  39
                   78-        +HEX  3998      97                                                              
                   79-        CHEXA2  40      1       86      87      90      89      95      96      +HEX  40
                   80-        +HEX  4099      98                                                              
                   81-        CNGRNT  1       2       THRU    40                                              
                   82-        FORCE1  20      91      .375+3  82      91                                      
                   83-        FORCE1  20      92      .75+3   83      92                                      
                   84-        FORCE1  20      93      .375+3  84      93                                      
                   85-        FORCE1  20      94      .75+3   85      94                                      
                   86-        FORCE1  20      95      1.5+3   86      95                                      
                   87-        FORCE1  20      96      .75+3   87      96                                      
                   88-        FORCE1  20      97      .375+3  88      97                                      
                   89-        FORCE1  20      98      .75+3   89      98                                      
                   90-        FORCE1  20      99      .375+3  90      99                                      
                   91-        GRID    1               0.0     0.0     0.0             456                     
                   92-        GRID    2               0.0     0.0     1.00000         456                     
                   93-        GRID    3               0.0     0.0     2.00000         456                     
                   94-        GRID    4               0.0     1.00000 0.0             456                     
1     2 X 2 X 10  FIXED-FREE BEAM USING RECTANGULAR CHEXA2 ELEMENTS         /    95 SUN SOLARIS NASTRAN    / MAY 17, 95 / PAGE     8
      NASTRAN DEMONSTRATION PROBLEM NO. D01-09-1A                                                                                   

      TWO PLANES OF SYMMETRY                                                                                                        

                                                  S O R T E D   B U L K    D A T A    E C H O                                       
                     CARD                                                                                                           
                     COUNT        ---1--- +++2+++ ---3--- +++4+++ ---5--- +++6+++ ---7--- +++8+++ ---9--- +++10+++                  
                   95-        GRID    5               0.0     1.00000 1.00000         456                     
                   96-        GRID    6               0.0     1.00000 2.00000         456                     
                   97-        GRID    7               0.0     2.00000 0.0             456                     
                   98-        GRID    8               0.0     2.00000 1.00000         456                     
                   99-        GRID    9               0.0     2.00000 2.00000         456                     
                  100-        GRID    10              -2.000000.0     0.0             456                     
                  101-        GRID    11              -2.000000.0     1.00000         456                     
                  102-        GRID    12              -2.000000.0     2.00000         456                     
                  103-        GRID    13              -2.000001.00000 0.0             456                     
                  104-        GRID    14              -2.000001.00000 1.00000         456                     
                  105-        GRID    15              -2.000001.00000 2.00000         456                     
                  106-        GRID    16              -2.000002.00000 0.0             456                     
                  107-        GRID    17              -2.000002.00000 1.00000         456                     
                  108-        GRID    18              -2.000002.00000 2.00000         456                     
                  109-        GRID    19              -4.000000.0     0.0             456                     
                  110-        GRID    20              -4.000000.0     1.00000         456                     
                  111-        GRID    21              -4.000000.0     2.00000         456                     
                  112-        GRID    22              -4.000001.00000 0.0             456                     
                  113-        GRID    23              -4.000001.00000 1.00000         456                     
                  114-        GRID    24              -4.000001.00000 2.00000         456                     
                  115-        GRID    25              -4.000002.00000 0.0             456                     
                  116-        GRID    26              -4.000002.00000 1.00000         456                     
                  117-        GRID    27              -4.000002.00000 2.00000         456                     
                  118-        GRID    28              -6.000000.0     0.0             456                     
                  119-        GRID    29              -6.000000.0     1.00000         456                     
                  120-        GRID    30              -6.000000.0     2.00000         456                     
                  121-        GRID    31              -6.000001.00000 0.0             456                     
                  122-        GRID    32              -6.000001.00000 1.00000         456                     
                  123-        GRID    33              -6.000001.00000 2.00000         456                     
                  124-        GRID    34              -6.000002.00000 0.0             456                     
                  125-        GRID    35              -6.000002.00000 1.00000         456                     
                  126-        GRID    36              -6.000002.00000 2.00000         456                     
                  127-        GRID    37              -8.000000.0     0.0             456                     
                  128-        GRID    38              -8.000000.0     1.00000         456                     
                  129-        GRID    39              -8.000000.0     2.00000         456                     
                  130-        GRID    40              -8.000001.00000 0.0             456                     
                  131-        GRID    41              -8.000001.00000 1.00000         456                     
                  132-        GRID    42              -8.000001.00000 2.00000         456                     
                  133-        GRID    43              -8.000002.00000 0.0             456                     
                  134-        GRID    44              -8.000002.00000 1.00000         456                     
                  135-        GRID    45              -8.000002.00000 2.00000         456                     
                  136-        GRID    46              -10.00000.0     0.0             456                     
                  137-        GRID    47              -10.00000.0     1.00000         456                     
                  138-        GRID    48              -10.00000.0     2.00000         456                     
                  139-        GRID    49              -10.00001.00000 0.0             456                     
                  140-        GRID    50              -10.00001.00000 1.00000         456                     
                  141-        GRID    51              -10.00001.00000 2.00000         456                     
1     2 X 2 X 10  FIXED-FREE BEAM USING RECTANGULAR CHEXA2 ELEMENTS         /    95 SUN SOLARIS NASTRAN    / MAY 17, 95 / PAGE     9
      NASTRAN DEMONSTRATION PROBLEM NO. D01-09-1A                                                                                   

      TWO PLANES OF SYMMETRY                                                                                                        

                                                  S O R T E D   B U L K    D A T A    E C H O                                       
                     CARD                                                                                                           
                     COUNT        ---1--- +++2+++ ---3--- +++4+++ ---5--- +++6+++ ---7--- +++8+++ ---9--- +++10+++                  
                  142-        GRID    52              -10.00002.00000 0.0             456                     
                  143-        GRID    53              -10.00002.00000 1.00000         456                     
                  144-        GRID    54              -10.00002.00000 2.00000         456                     
                  145-        GRID    55              -12.00000.0     0.0             456                     
                  146-        GRID    56              -12.00000.0     1.00000         456                     
                  147-        GRID    57              -12.00000.0     2.00000         456                     
                  148-        GRID    58              -12.00001.00000 0.0             456                     
                  149-        GRID    59              -12.00001.00000 1.00000         456                     
                  150-        GRID    60              -12.00001.00000 2.00000         456                     
                  151-        GRID    61              -12.00002.00000 0.0             456                     
                  152-        GRID    62              -12.00002.00000 1.00000         456                     
                  153-        GRID    63              -12.00002.00000 2.00000         456                     
                  154-        GRID    64              -14.00000.0     0.0             456                     
                  155-        GRID    65              -14.00000.0     1.00000         456                     
                  156-        GRID    66              -14.00000.0     2.00000         456                     
                  157-        GRID    67              -14.00001.00000 0.0             456                     
                  158-        GRID    68              -14.00001.00000 1.00000         456                     
                  159-        GRID    69              -14.00001.00000 2.00000         456                     
                  160-        GRID    70              -14.00002.00000 0.0             456                     
                  161-        GRID    71              -14.00002.00000 1.00000         456                     
                  162-        GRID    72              -14.00002.00000 2.00000         456                     
                  163-        GRID    73              -16.00000.0     0.0             456                     
                  164-        GRID    74              -16.00000.0     1.00000         456                     
                  165-        GRID    75              -16.00000.0     2.00000         456                     
                  166-        GRID    76              -16.00001.00000 0.0             456                     
                  167-        GRID    77              -16.00001.00000 1.00000         456                     
                  168-        GRID    78              -16.00001.00000 2.00000         456                     
                  169-        GRID    79              -16.00002.00000 0.0             456                     
                  170-        GRID    80              -16.00002.00000 1.00000         456                     
                  171-        GRID    81              -16.00002.00000 2.00000         456                     
                  172-        GRID    82              -18.00000.0     0.0             456                     
                  173-        GRID    83              -18.00000.0     1.00000         456                     
                  174-        GRID    84              -18.00000.0     2.00000         456                     
                  175-        GRID    85              -18.00001.00000 0.0             456                     
                  176-        GRID    86              -18.00001.00000 1.00000         456                     
                  177-        GRID    87              -18.00001.00000 2.00000         456                     
                  178-        GRID    88              -18.00002.00000 0.0             456                     
                  179-        GRID    89              -18.00002.00000 1.00000         456                     
                  180-        GRID    90              -18.00002.00000 2.00000         456                     
                  181-        GRID    91              -20.00000.0     0.0             456                     
                  182-        GRID    92              -20.00000.0     1.00000         456                     
                  183-        GRID    93              -20.00000.0     2.00000         456                     
                  184-        GRID    94              -20.00001.00000 0.0             456                     
                  185-        GRID    95              -20.00001.00000 1.00000         456                     
                  186-        GRID    96              -20.00001.00000 2.00000         456                     
                  187-        GRID    97              -20.00002.00000 0.0             456                     
                  188-        GRID    98              -20.00002.00000 1.00000         456                     
1     2 X 2 X 10  FIXED-FREE BEAM USING RECTANGULAR CHEXA2 ELEMENTS         /    95 SUN SOLARIS NASTRAN    / MAY 17, 95 / PAGE    10
      NASTRAN DEMONSTRATION PROBLEM NO. D01-09-1A                                                                                   

      TWO PLANES OF SYMMETRY                                                                                                        

                                                  S O R T E D   B U L K    D A T A    E C H O                                       
                     CARD                                                                                                           
                     COUNT        ---1--- +++2+++ ---3--- +++4+++ ---5--- +++6+++ ---7--- +++8+++ ---9--- +++10+++                  
                  189-        GRID    99              -20.00002.00000 2.00000         456                     
                  190-        MAT1    1       3.0+6           .2      1.0     .001    10.0            +MAT1   
                  191-        SPC1    100     1       1       2       3       4       5       6               
                  192-        SPC1    100     1       7       8       9                                       
                  193-        SPC1    100     2       1       2       3                                       
                  194-        SPC1    103     3       1       4       7       10      13      16      +1SPC103
                  195-        +1SPC10319      22      25      28      31      34      37      40      +2SPC103
                  196-        +2SPC10343      46      49      52      55      58      61      64      +3SPC103
                  197-        +3SPC10367      70      73      76      79      82      85      88      +4SPC103
                  198-        +4SPC10391      94      97                                                      
                  199-        SPC1    104     2       1       2       3       10      11      12              
                  200-        SPC1    104     2       19      20      21      28      29      30              
                  201-        SPC1    104     2       37      38      39      46      47      48              
                  202-        SPC1    104     2       55      56      57      64      65      66              
                  203-        SPC1    104     2       73      74      75      82      83      84              
                  204-        SPC1    104     2       91      92      93                                      
                  205-        SPCADD  2       100     104     103                                             
                  206-        TEMPD   30      60.0                                                            
                              ENDDATA
1     2 X 2 X 10  FIXED-FREE BEAM USING RECTANGULAR CHEXA2 ELEMENTS         /    95 SUN SOLARIS NASTRAN    / MAY 17, 95 / PAGE    11
      NASTRAN DEMONSTRATION PROBLEM NO. D01-09-1A                                                                                   
0     TWO PLANES OF SYMMETRY                                                                                                        
0*** USER INFORMATION MESSAGES FROM RESEQUENCING PROCESSOR - BANDIT     (CRI= 1,  MTH= 3,  MPC= 0,  DEP=-1,  PCH=-1)

                               BEFORE RESEQUENCING - - -
                                        BANDWIDTH           14
                                        PROFILE           1173
                                        MAX WAVEFRONT       14
                                        AVG WAVEFRONT   11.848
                                        RMS WAVEFRONT   12.148
                                        RMS BANDWIDTH   12.219

                               AFTER RESEQUENCING BY GIBBS-POOLE-STOCKMEYER (GPS) ALGORITHM - - -
                                        BANDWIDTH           15
                                        PROFILE           1206
                                        MAX WAVEFRONT       15
                                        AVG WAVEFRONT   12.182
                                        RMS WAVEFRONT   12.523
                                        RMS BANDWIDTH   12.560


                                                     *** BANDIT SUMMARY ***

                                                                        BEFORE     AFTER
                                        BANDWIDTH (B)                       14        14
                                        PROFILE (P)                       1173      1173
                                        MAXIMUM WAVEFRONT (C-MAX)           14        14
                                        AVERAGE WAVEFRONT (C-AVG)       11.848    11.848
                                        RMS WAVEFRONT (C-RMS)           12.148    12.148
                                        RMS BANDWITCH (B-RMS)           12.219    12.219
                                        NUMBER OF GRID POINTS (N)                     99
                                        NUMBER OF ELEMENTS (NON-RIGID)                40
                                        NUMBER OF RIGID ELEMENTS PROCESSED*            0
                                        NUMBER OF MPC  EQUATIONS PROCESSED*            0
                                        NUMBER OF COMPONENTS                           1
                                        MAXIMUM NODAL DEGREE                          26
                                        MINIMUM NODAL DEGREE                           7
                                        NUMBER OF UNIQUE EDGES                       710
                                        MATRIX DENSITY, PERCENT                   15.498
                                        NUMBER OF POINTS OF ZERO DEGREE                0
                                        BANDIT OPEN CORE                         1998969
                                        CRITERION*                         RMS WAVEFRONT
                                        METHOD USED*                                 GPS

                               (* THESE DEFAULT OPTIONS CAN BE OVERRIDDEN BY THE NASTRAN CARD)


                               BANDIT FINDS GRID POINT RE-SEQUENCING NOT NECESSARY
0         **NO ERRORS FOUND - EXECUTE NASTRAN PROGRAM**
0*** USER INFORMATION MESSAGE 238, TURN DIAG 38 ON FOR ADDITIONAL ELEMENT PROCESSING INFORMATION

0*** USER INFORMATION MESSAGE 3113,
     EMG MODULE PROCESSING DOUBLE PRECISION HEXA2    ELEMENTS (ELEMENT TYPE  42) STARTING WITH ID        1
0*** USER INFORMATION MESSAGE 3035
     FOR SUBCASE NUMBER     1, EPSILON SUB E =   4.1212456E-15
0*** USER INFORMATION MESSAGE 3035
     FOR SUBCASE NUMBER     2, EPSILON SUB E =   1.0547864E-16
0*** SYSTEM WARNING MESSAGE 3022
+                                 (SEE PROG. MANUAL SEC. 4.9.7, OR USERS' MANUAL P. 6.5-3)
     DATA BLOCK ONRGY1   MAY BE REQUIRED AS INPUT AND IS NOT OUTPUT BY A PREVIOUS MODULE IN THE CURRENT DMAP ROUTE.
1     2 X 2 X 10  FIXED-FREE BEAM USING RECTANGULAR CHEXA2 ELEMENTS         /    95 SUN SOLARIS NASTRAN    / MAY 17, 95 / PAGE    12
      NASTRAN DEMONSTRATION PROBLEM NO. D01-09-1A                                                                                   
0     UNIFORM STRESS.                                                                                        SUBCASE 1              
 
                                             D I S P L A C E M E N T   V E C T O R
 
      POINT ID.   TYPE          T1             T2             T3             R1             R2             R3
             1      G      0.0            0.0            0.0            0.0            0.0            0.0                           
             2      G      0.0            0.0           -1.000000E-04   0.0            0.0            0.0                           
             3      G      0.0            0.0           -2.000000E-04   0.0            0.0            0.0                           
             4      G      0.0           -1.000000E-04   0.0            0.0            0.0            0.0                           
             5      G      0.0           -1.000000E-04  -1.000000E-04   0.0            0.0            0.0                           
             6      G      0.0           -1.000000E-04  -2.000000E-04   0.0            0.0            0.0                           
             7      G      0.0           -2.000000E-04   0.0            0.0            0.0            0.0                           
             8      G      0.0           -2.000000E-04  -1.000000E-04   0.0            0.0            0.0                           
             9      G      0.0           -2.000000E-04  -2.000000E-04   0.0            0.0            0.0                           
            10      G     -1.000000E-03   0.0            0.0            0.0            0.0            0.0                           
            11      G     -1.000000E-03   0.0           -1.000000E-04   0.0            0.0            0.0                           
            12      G     -1.000000E-03   0.0           -2.000000E-04   0.0            0.0            0.0                           
            13      G     -1.000000E-03  -1.000000E-04   0.0            0.0            0.0            0.0                           
            14      G     -1.000000E-03  -1.000000E-04  -1.000000E-04   0.0            0.0            0.0                           
            15      G     -1.000000E-03  -1.000000E-04  -2.000000E-04   0.0            0.0            0.0                           
            16      G     -1.000000E-03  -2.000000E-04   0.0            0.0            0.0            0.0                           
            17      G     -1.000000E-03  -2.000000E-04  -1.000000E-04   0.0            0.0            0.0                           
            18      G     -1.000000E-03  -2.000000E-04  -2.000000E-04   0.0            0.0            0.0                           
            19      G     -2.000000E-03   0.0            0.0            0.0            0.0            0.0                           
            20      G     -2.000000E-03   0.0           -1.000000E-04   0.0            0.0            0.0                           
            21      G     -2.000000E-03   0.0           -2.000000E-04   0.0            0.0            0.0                           
            22      G     -2.000000E-03  -1.000000E-04   0.0            0.0            0.0            0.0                           
            23      G     -2.000000E-03  -1.000000E-04  -1.000000E-04   0.0            0.0            0.0                           
            24      G     -2.000000E-03  -1.000000E-04  -2.000000E-04   0.0            0.0            0.0                           
            25      G     -2.000000E-03  -2.000000E-04   0.0            0.0            0.0            0.0                           
            26      G     -2.000000E-03  -2.000000E-04  -1.000000E-04   0.0            0.0            0.0                           
            27      G     -2.000000E-03  -2.000000E-04  -2.000000E-04   0.0            0.0            0.0                           
            28      G     -3.000000E-03   0.0            0.0            0.0            0.0            0.0                           
            29      G     -3.000000E-03   0.0           -1.000000E-04   0.0            0.0            0.0                           
            30      G     -3.000000E-03   0.0           -2.000000E-04   0.0            0.0            0.0                           
            31      G     -3.000000E-03  -1.000000E-04   0.0            0.0            0.0            0.0                           
            32      G     -3.000000E-03  -1.000000E-04  -1.000000E-04   0.0            0.0            0.0                           
            33      G     -3.000000E-03  -1.000000E-04  -2.000000E-04   0.0            0.0            0.0                           
            34      G     -3.000000E-03  -2.000000E-04   0.0            0.0            0.0            0.0                           
            35      G     -3.000000E-03  -2.000000E-04  -1.000000E-04   0.0            0.0            0.0                           
            36      G     -3.000000E-03  -2.000000E-04  -2.000000E-04   0.0            0.0            0.0                           
            37      G     -4.000000E-03   0.0            0.0            0.0            0.0            0.0                           
            38      G     -4.000000E-03   0.0           -1.000000E-04   0.0            0.0            0.0                           
            39      G     -4.000000E-03   0.0           -2.000000E-04   0.0            0.0            0.0                           
            40      G     -4.000000E-03  -1.000000E-04   0.0            0.0            0.0            0.0                           
            41      G     -4.000000E-03  -1.000000E-04  -1.000000E-04   0.0            0.0            0.0                           
            42      G     -4.000000E-03  -1.000000E-04  -2.000000E-04   0.0            0.0            0.0                           
            43      G     -4.000000E-03  -2.000000E-04   0.0            0.0            0.0            0.0                           
            44      G     -4.000000E-03  -2.000000E-04  -1.000000E-04   0.0            0.0            0.0                           
            45      G     -4.000000E-03  -2.000000E-04  -2.000000E-04   0.0            0.0            0.0                           
            46      G     -5.000000E-03   0.0            0.0            0.0            0.0            0.0                           
            47      G     -5.000000E-03   0.0           -1.000000E-04   0.0            0.0            0.0                           
1     2 X 2 X 10  FIXED-FREE BEAM USING RECTANGULAR CHEXA2 ELEMENTS         /    95 SUN SOLARIS NASTRAN    / MAY 17, 95 / PAGE    13
      NASTRAN DEMONSTRATION PROBLEM NO. D01-09-1A                                                                                   
0     UNIFORM STRESS.                                                                                        SUBCASE 1              
 
                                             D I S P L A C E M E N T   V E C T O R
 
      POINT ID.   TYPE          T1             T2             T3             R1             R2             R3
            48      G     -5.000000E-03   0.0           -2.000000E-04   0.0            0.0            0.0                           
            49      G     -5.000000E-03  -1.000000E-04   0.0            0.0            0.0            0.0                           
            50      G     -5.000000E-03  -1.000000E-04  -1.000000E-04   0.0            0.0            0.0                           
            51      G     -5.000000E-03  -1.000000E-04  -2.000000E-04   0.0            0.0            0.0                           
            52      G     -5.000000E-03  -2.000000E-04   0.0            0.0            0.0            0.0                           
            53      G     -5.000000E-03  -2.000000E-04  -1.000000E-04   0.0            0.0            0.0                           
            54      G     -5.000000E-03  -2.000000E-04  -2.000000E-04   0.0            0.0            0.0                           
            55      G     -6.000000E-03   0.0            0.0            0.0            0.0            0.0                           
            56      G     -6.000000E-03   0.0           -1.000000E-04   0.0            0.0            0.0                           
            57      G     -6.000000E-03   0.0           -2.000000E-04   0.0            0.0            0.0                           
            58      G     -6.000000E-03  -1.000000E-04   0.0            0.0            0.0            0.0                           
            59      G     -6.000000E-03  -1.000000E-04  -1.000000E-04   0.0            0.0            0.0                           
            60      G     -6.000000E-03  -1.000000E-04  -2.000000E-04   0.0            0.0            0.0                           
            61      G     -6.000000E-03  -2.000000E-04   0.0            0.0            0.0            0.0                           
            62      G     -6.000000E-03  -2.000000E-04  -1.000000E-04   0.0            0.0            0.0                           
            63      G     -6.000000E-03  -2.000000E-04  -2.000000E-04   0.0            0.0            0.0                           
            64      G     -7.000000E-03   0.0            0.0            0.0            0.0            0.0                           
            65      G     -7.000000E-03   0.0           -1.000000E-04   0.0            0.0            0.0                           
            66      G     -7.000000E-03   0.0           -2.000000E-04   0.0            0.0            0.0                           
            67      G     -7.000000E-03  -1.000000E-04   0.0            0.0            0.0            0.0                           
            68      G     -7.000000E-03  -1.000000E-04  -1.000000E-04   0.0            0.0            0.0                           
            69      G     -7.000000E-03  -1.000000E-04  -2.000000E-04   0.0            0.0            0.0                           
            70      G     -7.000000E-03  -2.000000E-04   0.0            0.0            0.0            0.0                           
            71      G     -7.000000E-03  -2.000000E-04  -1.000000E-04   0.0            0.0            0.0                           
            72      G     -7.000000E-03  -2.000000E-04  -2.000000E-04   0.0            0.0            0.0                           
            73      G     -8.000000E-03   0.0            0.0            0.0            0.0            0.0                           
            74      G     -8.000000E-03   0.0           -1.000000E-04   0.0            0.0            0.0                           
            75      G     -8.000000E-03   0.0           -2.000000E-04   0.0            0.0            0.0                           
            76      G     -8.000000E-03  -1.000000E-04   0.0            0.0            0.0            0.0                           
            77      G     -8.000000E-03  -1.000000E-04  -1.000000E-04   0.0            0.0            0.0                           
            78      G     -8.000000E-03  -1.000000E-04  -2.000000E-04   0.0            0.0            0.0                           
            79      G     -8.000000E-03  -2.000000E-04   0.0            0.0            0.0            0.0                           
            80      G     -8.000000E-03  -2.000000E-04  -1.000000E-04   0.0            0.0            0.0                           
            81      G     -8.000000E-03  -2.000000E-04  -2.000000E-04   0.0            0.0            0.0                           
            82      G     -9.000001E-03   0.0            0.0            0.0            0.0            0.0                           
            83      G     -9.000001E-03   0.0           -1.000000E-04   0.0            0.0            0.0                           
            84      G     -9.000001E-03   0.0           -2.000000E-04   0.0            0.0            0.0                           
            85      G     -9.000001E-03  -1.000000E-04   0.0            0.0            0.0            0.0                           
            86      G     -9.000001E-03  -1.000000E-04  -1.000000E-04   0.0            0.0            0.0                           
            87      G     -9.000001E-03  -1.000000E-04  -2.000000E-04   0.0            0.0            0.0                           
            88      G     -9.000001E-03  -2.000000E-04   0.0            0.0            0.0            0.0                           
            89      G     -9.000001E-03  -2.000000E-04  -1.000000E-04   0.0            0.0            0.0                           
            90      G     -9.000001E-03  -2.000000E-04  -2.000000E-04   0.0            0.0            0.0                           
            91      G     -1.000000E-02   0.0            0.0            0.0            0.0            0.0                           
            92      G     -1.000000E-02   0.0           -1.000000E-04   0.0            0.0            0.0                           
            93      G     -1.000000E-02   0.0           -2.000000E-04   0.0            0.0            0.0                           
            94      G     -1.000000E-02  -1.000000E-04   0.0            0.0            0.0            0.0                           
1     2 X 2 X 10  FIXED-FREE BEAM USING RECTANGULAR CHEXA2 ELEMENTS         /    95 SUN SOLARIS NASTRAN    / MAY 17, 95 / PAGE    14
      NASTRAN DEMONSTRATION PROBLEM NO. D01-09-1A                                                                                   
0     UNIFORM STRESS.                                                                                        SUBCASE 1              
 
                                             D I S P L A C E M E N T   V E C T O R
 
      POINT ID.   TYPE          T1             T2             T3             R1             R2             R3
            95      G     -1.000000E-02  -1.000000E-04  -1.000000E-04   0.0            0.0            0.0                           
            96      G     -1.000000E-02  -1.000000E-04  -2.000000E-04   0.0            0.0            0.0                           
            97      G     -1.000000E-02  -2.000000E-04   0.0            0.0            0.0            0.0                           
            98      G     -1.000000E-02  -2.000000E-04  -1.000000E-04   0.0            0.0            0.0                           
            99      G     -1.000000E-02  -2.000000E-04  -2.000000E-04   0.0            0.0            0.0                           
1     2 X 2 X 10  FIXED-FREE BEAM USING RECTANGULAR CHEXA2 ELEMENTS         /    95 SUN SOLARIS NASTRAN    / MAY 17, 95 / PAGE    15
      NASTRAN DEMONSTRATION PROBLEM NO. D01-09-1A                                                                                   
0     UNIFORM TEMPERATURE LOAD.                                                                              SUBCASE 2              
 
                                             D I S P L A C E M E N T   V E C T O R
 
      POINT ID.   TYPE          T1             T2             T3             R1             R2             R3
             1      G      0.0            0.0            0.0            0.0            0.0            0.0                           
             2      G      0.0            0.0            5.000001E-02   0.0            0.0            0.0                           
             3      G      0.0            0.0            1.000000E-01   0.0            0.0            0.0                           
             4      G      0.0            5.000001E-02   0.0            0.0            0.0            0.0                           
             5      G      0.0            5.000001E-02   5.000001E-02   0.0            0.0            0.0                           
             6      G      0.0            5.000001E-02   1.000000E-01   0.0            0.0            0.0                           
             7      G      0.0            1.000000E-01   0.0            0.0            0.0            0.0                           
             8      G      0.0            1.000000E-01   5.000001E-02   0.0            0.0            0.0                           
             9      G      0.0            1.000000E-01   1.000000E-01   0.0            0.0            0.0                           
            10      G     -1.000000E-01   0.0            0.0            0.0            0.0            0.0                           
            11      G     -1.000000E-01   0.0            5.000001E-02   0.0            0.0            0.0                           
            12      G     -1.000000E-01   0.0            1.000000E-01   0.0            0.0            0.0                           
            13      G     -1.000000E-01   5.000001E-02   0.0            0.0            0.0            0.0                           
            14      G     -1.000000E-01   5.000001E-02   5.000001E-02   0.0            0.0            0.0                           
            15      G     -1.000000E-01   5.000001E-02   1.000000E-01   0.0            0.0            0.0                           
            16      G     -1.000000E-01   1.000000E-01   0.0            0.0            0.0            0.0                           
            17      G     -1.000000E-01   1.000000E-01   5.000001E-02   0.0            0.0            0.0                           
            18      G     -1.000000E-01   1.000000E-01   1.000000E-01   0.0            0.0            0.0                           
            19      G     -2.000000E-01   0.0            0.0            0.0            0.0            0.0                           
            20      G     -2.000000E-01   0.0            5.000001E-02   0.0            0.0            0.0                           
            21      G     -2.000000E-01   0.0            1.000000E-01   0.0            0.0            0.0                           
            22      G     -2.000000E-01   5.000000E-02   0.0            0.0            0.0            0.0                           
            23      G     -2.000000E-01   5.000000E-02   5.000001E-02   0.0            0.0            0.0                           
            24      G     -2.000000E-01   5.000001E-02   1.000000E-01   0.0            0.0            0.0                           
            25      G     -2.000000E-01   1.000000E-01   0.0            0.0            0.0            0.0                           
            26      G     -2.000000E-01   1.000000E-01   5.000000E-02   0.0            0.0            0.0                           
            27      G     -2.000000E-01   1.000000E-01   1.000000E-01   0.0            0.0            0.0                           
            28      G     -3.000000E-01   0.0            0.0            0.0            0.0            0.0                           
            29      G     -3.000000E-01   0.0            5.000000E-02   0.0            0.0            0.0                           
            30      G     -3.000000E-01   0.0            1.000000E-01   0.0            0.0            0.0                           
            31      G     -3.000000E-01   5.000001E-02   0.0            0.0            0.0            0.0                           
            32      G     -3.000000E-01   5.000001E-02   5.000001E-02   0.0            0.0            0.0                           
            33      G     -3.000000E-01   5.000001E-02   1.000000E-01   0.0            0.0            0.0                           
            34      G     -3.000000E-01   1.000000E-01   0.0            0.0            0.0            0.0                           
            35      G     -3.000000E-01   1.000000E-01   5.000001E-02   0.0            0.0            0.0                           
            36      G     -3.000000E-01   1.000000E-01   1.000000E-01   0.0            0.0            0.0                           
            37      G     -4.000000E-01   0.0            0.0            0.0            0.0            0.0                           
            38      G     -4.000000E-01   0.0            5.000001E-02   0.0            0.0            0.0                           
            39      G     -4.000000E-01   0.0            1.000000E-01   0.0            0.0            0.0                           
            40      G     -4.000000E-01   5.000000E-02   0.0            0.0            0.0            0.0                           
            41      G     -4.000000E-01   5.000000E-02   5.000001E-02   0.0            0.0            0.0                           
            42      G     -4.000000E-01   5.000001E-02   1.000000E-01   0.0            0.0            0.0                           
            43      G     -4.000000E-01   1.000000E-01   0.0            0.0            0.0            0.0                           
            44      G     -4.000000E-01   1.000000E-01   5.000001E-02   0.0            0.0            0.0                           
            45      G     -4.000000E-01   1.000000E-01   1.000000E-01   0.0            0.0            0.0                           
            46      G     -5.000000E-01   0.0            0.0            0.0            0.0            0.0                           
            47      G     -5.000000E-01   0.0            5.000001E-02   0.0            0.0            0.0                           
1     2 X 2 X 10  FIXED-FREE BEAM USING RECTANGULAR CHEXA2 ELEMENTS         /    95 SUN SOLARIS NASTRAN    / MAY 17, 95 / PAGE    16
      NASTRAN DEMONSTRATION PROBLEM NO. D01-09-1A                                                                                   
0     UNIFORM TEMPERATURE LOAD.                                                                              SUBCASE 2              
 
                                             D I S P L A C E M E N T   V E C T O R
 
      POINT ID.   TYPE          T1             T2             T3             R1             R2             R3
            48      G     -5.000000E-01   0.0            1.000000E-01   0.0            0.0            0.0                           
            49      G     -5.000000E-01   5.000001E-02   0.0            0.0            0.0            0.0                           
            50      G     -5.000000E-01   5.000001E-02   5.000001E-02   0.0            0.0            0.0                           
            51      G     -5.000000E-01   5.000001E-02   1.000000E-01   0.0            0.0            0.0                           
            52      G     -5.000000E-01   1.000000E-01   0.0            0.0            0.0            0.0                           
            53      G     -5.000000E-01   1.000000E-01   5.000001E-02   0.0            0.0            0.0                           
            54      G     -5.000000E-01   1.000000E-01   1.000000E-01   0.0            0.0            0.0                           
            55      G     -6.000000E-01   0.0            0.0            0.0            0.0            0.0                           
            56      G     -6.000000E-01   0.0            5.000000E-02   0.0            0.0            0.0                           
            57      G     -6.000000E-01   0.0            1.000000E-01   0.0            0.0            0.0                           
            58      G     -6.000000E-01   5.000000E-02   0.0            0.0            0.0            0.0                           
            59      G     -6.000000E-01   5.000000E-02   5.000000E-02   0.0            0.0            0.0                           
            60      G     -6.000000E-01   5.000000E-02   1.000000E-01   0.0            0.0            0.0                           
            61      G     -6.000000E-01   1.000000E-01   0.0            0.0            0.0            0.0                           
            62      G     -6.000000E-01   1.000000E-01   5.000000E-02   0.0            0.0            0.0                           
            63      G     -6.000000E-01   1.000000E-01   1.000000E-01   0.0            0.0            0.0                           
            64      G     -7.000000E-01   0.0            0.0            0.0            0.0            0.0                           
            65      G     -7.000000E-01   0.0            5.000000E-02   0.0            0.0            0.0                           
            66      G     -7.000000E-01   0.0            1.000000E-01   0.0            0.0            0.0                           
            67      G     -7.000000E-01   5.000000E-02   0.0            0.0            0.0            0.0                           
            68      G     -7.000000E-01   5.000000E-02   5.000000E-02   0.0            0.0            0.0                           
            69      G     -7.000000E-01   5.000000E-02   1.000000E-01   0.0            0.0            0.0                           
            70      G     -7.000000E-01   1.000000E-01   0.0            0.0            0.0            0.0                           
            71      G     -7.000000E-01   1.000000E-01   5.000000E-02   0.0            0.0            0.0                           
            72      G     -7.000000E-01   1.000000E-01   1.000000E-01   0.0            0.0            0.0                           
            73      G     -8.000000E-01   0.0            0.0            0.0            0.0            0.0                           
            74      G     -8.000000E-01   0.0            5.000000E-02   0.0            0.0            0.0                           
            75      G     -8.000000E-01   0.0            1.000000E-01   0.0            0.0            0.0                           
            76      G     -8.000000E-01   5.000000E-02   0.0            0.0            0.0            0.0                           
            77      G     -8.000000E-01   5.000000E-02   5.000000E-02   0.0            0.0            0.0                           
            78      G     -8.000000E-01   5.000000E-02   1.000000E-01   0.0            0.0            0.0                           
            79      G     -8.000000E-01   1.000000E-01   0.0            0.0            0.0            0.0                           
            80      G     -8.000000E-01   1.000000E-01   5.000000E-02   0.0            0.0            0.0                           
            81      G     -8.000000E-01   1.000000E-01   1.000000E-01   0.0            0.0            0.0                           
            82      G     -9.000000E-01   0.0            0.0            0.0            0.0            0.0                           
            83      G     -9.000000E-01   0.0            5.000002E-02   0.0            0.0            0.0                           
            84      G     -9.000000E-01   0.0            1.000000E-01   0.0            0.0            0.0                           
            85      G     -9.000000E-01   5.000001E-02   0.0            0.0            0.0            0.0                           
            86      G     -9.000000E-01   5.000001E-02   5.000002E-02   0.0            0.0            0.0                           
            87      G     -9.000000E-01   5.000001E-02   1.000000E-01   0.0            0.0            0.0                           
            88      G     -9.000000E-01   1.000000E-01   0.0            0.0            0.0            0.0                           
            89      G     -9.000000E-01   1.000000E-01   5.000002E-02   0.0            0.0            0.0                           
            90      G     -9.000000E-01   1.000000E-01   1.000000E-01   0.0            0.0            0.0                           
            91      G     -1.000000E+00   0.0            0.0            0.0            0.0            0.0                           
            92      G     -1.000000E+00   0.0            5.000002E-02   0.0            0.0            0.0                           
            93      G     -1.000000E+00   0.0            1.000000E-01   0.0            0.0            0.0                           
            94      G     -1.000000E+00   5.000002E-02   0.0            0.0            0.0            0.0                           
1     2 X 2 X 10  FIXED-FREE BEAM USING RECTANGULAR CHEXA2 ELEMENTS         /    95 SUN SOLARIS NASTRAN    / MAY 17, 95 / PAGE    17
      NASTRAN DEMONSTRATION PROBLEM NO. D01-09-1A                                                                                   
0     UNIFORM TEMPERATURE LOAD.                                                                              SUBCASE 2              
 
                                             D I S P L A C E M E N T   V E C T O R
 
      POINT ID.   TYPE          T1             T2             T3             R1             R2             R3
            95      G     -1.000000E+00   5.000002E-02   5.000003E-02   0.0            0.0            0.0                           
            96      G     -1.000000E+00   5.000002E-02   1.000000E-01   0.0            0.0            0.0                           
            97      G     -1.000000E+00   1.000000E-01   0.0            0.0            0.0            0.0                           
            98      G     -1.000000E+00   1.000000E-01   5.000002E-02   0.0            0.0            0.0                           
            99      G     -1.000000E+00   1.000000E-01   1.000000E-01   0.0            0.0            0.0                           
1     2 X 2 X 10  FIXED-FREE BEAM USING RECTANGULAR CHEXA2 ELEMENTS         /    95 SUN SOLARIS NASTRAN    / MAY 17, 95 / PAGE    18
      NASTRAN DEMONSTRATION PROBLEM NO. D01-09-1A                                                                                   
0     UNIFORM STRESS.                                                                                        SUBCASE 1              
 
                                                     L O A D   V E C T O R
 
      POINT ID.   TYPE          T1             T2             T3             R1             R2             R3
            91      G     -3.750000E+02   0.0            0.0            0.0            0.0            0.0                           
            92      G     -7.500000E+02   0.0            0.0            0.0            0.0            0.0                           
            93      G     -3.750000E+02   0.0            0.0            0.0            0.0            0.0                           
            94      G     -7.500000E+02   0.0            0.0            0.0            0.0            0.0                           
            95      G     -1.500000E+03   0.0            0.0            0.0            0.0            0.0                           
            96      G     -7.500000E+02   0.0            0.0            0.0            0.0            0.0                           
            97      G     -3.750000E+02   0.0            0.0            0.0            0.0            0.0                           
            98      G     -7.500000E+02   0.0            0.0            0.0            0.0            0.0                           
            99      G     -3.750000E+02   0.0            0.0            0.0            0.0            0.0                           
1     2 X 2 X 10  FIXED-FREE BEAM USING RECTANGULAR CHEXA2 ELEMENTS         /    95 SUN SOLARIS NASTRAN    / MAY 17, 95 / PAGE    19
      NASTRAN DEMONSTRATION PROBLEM NO. D01-09-1A                                                                                   
0     UNIFORM TEMPERATURE LOAD.                                                                              SUBCASE 2              
 
                                                     L O A D   V E C T O R
 
      POINT ID.   TYPE          T1             T2             T3             R1             R2             R3
             1      G      6.250001E+04  -1.250000E+05  -1.250000E+05   0.0            0.0            0.0                           
             2      G      1.250000E+05  -2.500000E+05   3.906250E-03   0.0            0.0            0.0                           
             3      G      6.250001E+04  -1.250000E+05   1.250000E+05   0.0            0.0            0.0                           
             4      G      1.250000E+05   3.906250E-03  -2.500000E+05   0.0            0.0            0.0                           
             5      G      2.500000E+05  -3.906250E-03   3.906250E-03   0.0            0.0            0.0                           
             6      G      1.250000E+05   0.0            2.500000E+05   0.0            0.0            0.0                           
             7      G      6.250001E+04   1.250000E+05  -1.250000E+05   0.0            0.0            0.0                           
             8      G      1.250000E+05   2.500000E+05   0.0            0.0            0.0            0.0                           
             9      G      6.250001E+04   1.250000E+05   1.250000E+05   0.0            0.0            0.0                           
            10      G      0.0           -2.500000E+05  -2.500000E+05   0.0            0.0            0.0                           
            11      G     -1.953125E-03  -5.000000E+05  -3.906250E-03   0.0            0.0            0.0                           
            12      G     -1.953125E-03  -2.500000E+05   2.500000E+05   0.0            0.0            0.0                           
            13      G     -1.953125E-03  -3.906250E-03  -5.000000E+05   0.0            0.0            0.0                           
            14      G     -2.343750E-02   7.812500E-03  -1.953125E-02   0.0            0.0            0.0                           
            15      G     -3.906250E-03   0.0            5.000001E+05   0.0            0.0            0.0                           
            16      G     -1.953125E-03   2.500000E+05  -2.500000E+05   0.0            0.0            0.0                           
            17      G     -1.953125E-03   5.000001E+05   0.0            0.0            0.0            0.0                           
            18      G      0.0            2.500000E+05   2.500000E+05   0.0            0.0            0.0                           
            19      G      3.906250E-03  -2.500000E+05  -2.500000E+05   0.0            0.0            0.0                           
            20      G      0.0           -5.000000E+05   7.812500E-03   0.0            0.0            0.0                           
            21      G      3.906250E-03  -2.500000E+05   2.500000E+05   0.0            0.0            0.0                           
            22      G      0.0            0.0           -5.000000E+05   0.0            0.0            0.0                           
            23      G     -5.859375E-02   1.562500E-02   3.906250E-02   0.0            0.0            0.0                           
            24      G      7.812500E-03  -7.812500E-03   5.000000E+05   0.0            0.0            0.0                           
            25      G      3.906250E-03   2.500000E+05  -2.500000E+05   0.0            0.0            0.0                           
            26      G     -1.953125E-03   5.000000E+05  -3.906250E-03   0.0            0.0            0.0                           
            27      G     -1.953125E-03   2.500000E+05   2.500000E+05   0.0            0.0            0.0                           
            28      G     -7.812500E-03  -2.500000E+05  -2.500000E+05   0.0            0.0            0.0                           
            29      G      7.812500E-03  -5.000001E+05  -1.171875E-02   0.0            0.0            0.0                           
            30      G      0.0           -2.500000E+05   2.500000E+05   0.0            0.0            0.0                           
            31      G      7.812500E-03  -7.812500E-03  -5.000001E+05   0.0            0.0            0.0                           
            32      G      3.906250E-02  -1.562500E-02   1.562500E-02   0.0            0.0            0.0                           
            33      G      5.859375E-03   1.953125E-02   5.000000E+05   0.0            0.0            0.0                           
            34      G      0.0            2.500000E+05  -2.500000E+05   0.0            0.0            0.0                           
            35      G      9.765625E-03   5.000001E+05   1.171875E-02   0.0            0.0            0.0                           
            36      G      5.859375E-03   2.500000E+05   2.500000E+05   0.0            0.0            0.0                           
            37      G      3.906250E-03  -2.500000E+05  -2.500000E+05   0.0            0.0            0.0                           
            38      G      3.906250E-03  -5.000000E+05  -7.812500E-03   0.0            0.0            0.0                           
            39      G      0.0           -2.500000E+05   2.500000E+05   0.0            0.0            0.0                           
            40      G      3.906250E-03  -7.812500E-03  -5.000000E+05   0.0            0.0            0.0                           
            41      G      2.734375E-02   1.562500E-02   3.125000E-02   0.0            0.0            0.0                           
            42      G     -1.953125E-03   1.314147E-02   5.000000E+05   0.0            0.0            0.0                           
            43      G      0.0            2.500000E+05  -2.500000E+05   0.0            0.0            0.0                           
            44      G     -1.953125E-03   5.000000E+05   1.704772E-02   0.0            0.0            0.0                           
            45      G     -5.859375E-03   2.500000E+05   2.500000E+05   0.0            0.0            0.0                           
            46      G     -1.171875E-02  -2.500000E+05  -2.500000E+05   0.0            0.0            0.0                           
            47      G     -9.765625E-03  -5.000001E+05  -7.812500E-03   0.0            0.0            0.0                           
1     2 X 2 X 10  FIXED-FREE BEAM USING RECTANGULAR CHEXA2 ELEMENTS         /    95 SUN SOLARIS NASTRAN    / MAY 17, 95 / PAGE    20
      NASTRAN DEMONSTRATION PROBLEM NO. D01-09-1A                                                                                   
0     UNIFORM TEMPERATURE LOAD.                                                                              SUBCASE 2              
 
                                                     L O A D   V E C T O R
 
      POINT ID.   TYPE          T1             T2             T3             R1             R2             R3
            48      G     -1.953125E-03  -2.500000E+05   2.500000E+05   0.0            0.0            0.0                           
            49      G     -1.953125E-03  -7.812500E-03  -5.000001E+05   0.0            0.0            0.0                           
            50      G     -2.539062E-02   7.812500E-03   3.906250E-03   0.0            0.0            0.0                           
            51      G     -1.953125E-03   2.483527E-03   5.000001E+05   0.0            0.0            0.0                           
            52      G     -1.953125E-03   2.500000E+05  -2.500000E+05   0.0            0.0            0.0                           
            53      G     -1.953125E-03   5.000001E+05   6.389777E-03   0.0            0.0            0.0                           
            54      G     -3.906250E-03   2.500000E+05   2.500000E+05   0.0            0.0            0.0                           
            55      G      1.171875E-02  -2.500000E+05  -2.500000E+05   0.0            0.0            0.0                           
            56      G      0.0           -5.000000E+05  -7.812500E-03   0.0            0.0            0.0                           
            57      G      3.906250E-03  -2.500000E+05   2.500000E+05   0.0            0.0            0.0                           
            58      G      0.0           -7.812500E-03  -5.000000E+05   0.0            0.0            0.0                           
            59      G      2.148438E-02   1.953125E-02  -7.812500E-03   0.0            0.0            0.0                           
            60      G      3.906250E-03  -2.343750E-02   5.000000E+05   0.0            0.0            0.0                           
            61      G      1.171875E-02   2.500000E+05  -2.500000E+05   0.0            0.0            0.0                           
[...]
            76      G      3.906250E-03  -7.812500E-03  -5.000000E+05   0.0            0.0            0.0                           
            77      G     -3.906250E-03   7.812500E-03   7.812500E-03   0.0            0.0            0.0                           
            78      G     -9.765625E-03   1.060804E-03   5.000000E+05   0.0            0.0            0.0                           
            79      G      3.906250E-03   2.500000E+05  -2.500000E+05   0.0            0.0            0.0                           
            80      G      0.0            5.000000E+05   1.060804E-03   0.0            0.0            0.0                           
            81      G      0.0            2.500000E+05   2.500000E+05   0.0            0.0            0.0                           
            82      G     -1.171875E-02  -2.500000E+05  -2.500001E+05   0.0            0.0            0.0                           
            83      G     -9.765625E-03  -5.000001E+05  -7.812500E-03   0.0            0.0            0.0                           
            84      G      5.859375E-03  -2.500000E+05   2.500001E+05   0.0            0.0            0.0                           
            85      G     -1.953125E-03  -7.812500E-03  -5.000001E+05   0.0            0.0            0.0                           
            86      G      5.859375E-03   7.812500E-03   2.343750E-02   0.0            0.0            0.0                           
            87      G     -9.765625E-03  -3.125000E-02   5.000001E+05   0.0            0.0            0.0                           
            88      G     -1.953125E-03   2.500000E+05  -2.500001E+05   0.0            0.0            0.0                           
            89      G     -1.953125E-03   5.000001E+05   0.0            0.0            0.0            0.0                           
            90      G      1.953125E-03   2.500000E+05   2.500000E+05   0.0            0.0            0.0                           
            91      G     -6.250000E+04  -1.250000E+05  -1.250000E+05   0.0            0.0            0.0                           
            92      G     -1.250000E+05  -2.500000E+05   0.0            0.0            0.0            0.0                           
            93      G     -6.250000E+04  -1.250000E+05   1.250000E+05   0.0            0.0            0.0                           
            94      G     -1.250000E+05   7.812500E-03  -2.500001E+05   0.0            0.0            0.0                           
1     2 X 2 X 10  FIXED-FREE BEAM USING RECTANGULAR CHEXA2 ELEMENTS         /    95 SUN SOLARIS NASTRAN    / MAY 17, 95 / PAGE    21
      NASTRAN DEMONSTRATION PROBLEM NO. D01-09-1A                                                                                   
0     UNIFORM TEMPERATURE LOAD.                                                                              SUBCASE 2              
 
                                                     L O A D   V E C T O R
 
      POINT ID.   TYPE          T1             T2             T3             R1             R2             R3
            95      G     -2.500000E+05   1.171875E-02   2.734375E-02   0.0            0.0            0.0                           
            96      G     -1.250000E+05   7.812500E-03   2.500001E+05   0.0            0.0            0.0                           
            97      G     -6.250000E+04   1.250000E+05  -1.250000E+05   0.0            0.0            0.0                           
            98      G     -1.250000E+05   2.500000E+05   0.0            0.0            0.0            0.0                           
            99      G     -6.250001E+04   1.250000E+05   1.250000E+05   0.0            0.0            0.0                           
1     2 X 2 X 10  FIXED-FREE BEAM USING RECTANGULAR CHEXA2 ELEMENTS         /    95 SUN SOLARIS NASTRAN    / MAY 17, 95 / PAGE    22
      NASTRAN DEMONSTRATION PROBLEM NO. D01-09-1A                                                                                   
0     UNIFORM STRESS.                                                                                        SUBCASE 1              
 
                               F O R C E S   O F   S I N G L E - P O I N T   C O N S T R A I N T
 
      POINT ID.   TYPE          T1             T2             T3             R1             R2             R3
             1      G      3.750000E+02  -4.973799E-14  -1.070255E-13   0.0            0.0            0.0                           
             2      G      7.500000E+02   4.973799E-14   0.0            0.0            0.0            0.0                           
             3      G      3.750000E+02  -3.552714E-14   0.0            0.0            0.0            0.0                           
             4      G      7.500000E+02   0.0           -7.993606E-14   0.0            0.0            0.0                           
             5      G      1.500000E+03   0.0            0.0            0.0            0.0            0.0                           
             6      G      7.500000E+02   0.0            0.0            0.0            0.0            0.0                           
             7      G      3.750000E+02   0.0           -1.598721E-13   0.0            0.0            0.0                           
             8      G      7.500000E+02   0.0            0.0            0.0            0.0            0.0                           
             9      G      3.750000E+02   0.0            0.0            0.0            0.0            0.0                           
            10      G      0.0           -1.278977E-13   1.065814E-13   0.0            0.0            0.0                           
            11      G      0.0           -7.105427E-15   0.0            0.0            0.0            0.0                           
            12      G      0.0            1.421085E-14   0.0            0.0            0.0            0.0                           
            13      G      0.0            0.0           -1.234568E-13   0.0            0.0            0.0                           
            16      G      0.0            0.0           -5.329071E-14   0.0            0.0            0.0                           
            19      G      0.0           -4.227729E-13  -3.375078E-14   0.0            0.0            0.0                           
            20      G      0.0           -3.836931E-13   0.0            0.0            0.0            0.0                           
            21      G      0.0           -1.945111E-13   0.0            0.0            0.0            0.0                           
            22      G      0.0            0.0           -7.167600E-13   0.0            0.0            0.0                           
            25      G      0.0            0.0           -2.167155E-13   0.0            0.0            0.0                           
            28      G      0.0            2.131628E-13  -1.110223E-13   0.0            0.0            0.0                           
            29      G      0.0           -2.131628E-14   0.0            0.0            0.0            0.0                           
            30      G      0.0           -4.405365E-13   0.0            0.0            0.0            0.0                           
            31      G      0.0            0.0           -8.109069E-13   0.0            0.0            0.0                           
            34      G      0.0            0.0           -6.785683E-13   0.0            0.0            0.0                           
            37      G      0.0            1.421085E-13   1.465494E-14   0.0            0.0            0.0                           
            38      G      0.0           -6.181722E-13   0.0            0.0            0.0            0.0                           
            39      G      0.0            1.874056E-13   0.0            0.0            0.0            0.0                           
            40      G      0.0            0.0           -1.065814E-14   0.0            0.0            0.0                           
            43      G      0.0            0.0           -1.953993E-13   0.0            0.0            0.0                           
            46      G      0.0           -8.029133E-13   4.760636E-13   0.0            0.0            0.0                           
            47      G      0.0           -1.122658E-12   0.0            0.0            0.0            0.0                           
            48      G      0.0           -2.424727E-13   0.0            0.0            0.0            0.0                           
            49      G      0.0            0.0            8.792966E-13   0.0            0.0            0.0                           
            52      G      0.0            0.0            4.014566E-13   0.0            0.0            0.0                           
            55      G      0.0           -1.776357E-13  -2.575717E-14   0.0            0.0            0.0                           
            56      G      0.0            4.760636E-13   0.0            0.0            0.0            0.0                           
            57      G      0.0            8.171241E-14   0.0            0.0            0.0            0.0                           
            58      G      0.0            0.0            1.125322E-12   0.0            0.0            0.0                           
            61      G      0.0            0.0            1.385558E-13   0.0            0.0            0.0                           
            64      G      0.0           -7.212009E-13  -9.912071E-13   0.0            0.0            0.0                           
            65      G      0.0           -5.258016E-13   0.0            0.0            0.0            0.0                           
            66      G      0.0           -1.094236E-12   0.0            0.0            0.0            0.0                           
            67      G      0.0            0.0           -6.998846E-13   0.0            0.0            0.0                           
            70      G      0.0            0.0           -5.684342E-13   0.0            0.0            0.0                           
            73      G      0.0           -3.339551E-13   7.238654E-14   0.0            0.0            0.0                           
            74      G      0.0           -6.892265E-13   0.0            0.0            0.0            0.0                           
            75      G      0.0           -7.034373E-13   0.0            0.0            0.0            0.0                           
1     2 X 2 X 10  FIXED-FREE BEAM USING RECTANGULAR CHEXA2 ELEMENTS         /    95 SUN SOLARIS NASTRAN    / MAY 17, 95 / PAGE    23
      NASTRAN DEMONSTRATION PROBLEM NO. D01-09-1A                                                                                   
0     UNIFORM STRESS.                                                                                        SUBCASE 1              
 
                               F O R C E S   O F   S I N G L E - P O I N T   C O N S T R A I N T
 
      POINT ID.   TYPE          T1             T2             T3             R1             R2             R3
            76      G      0.0            0.0           -1.392664E-12   0.0            0.0            0.0                           
            79      G      0.0            0.0           -5.684342E-13   0.0            0.0            0.0                           
            82      G      0.0            6.643575E-13   2.562395E-13   0.0            0.0            0.0                           
            83      G      0.0            1.314504E-12   0.0            0.0            0.0            0.0                           
            84      G      0.0           -5.639933E-13   0.0            0.0            0.0            0.0                           
            85      G      0.0            0.0            6.963319E-13   0.0            0.0            0.0                           
            88      G      0.0            0.0            1.627143E-12   0.0            0.0            0.0                           
            91      G      0.0            6.963319E-13  -9.734435E-13   0.0            0.0            0.0                           
            92      G      0.0            1.577405E-12   0.0            0.0            0.0            0.0                           
            93      G      0.0            4.849454E-13   0.0            0.0            0.0            0.0                           
            94      G      0.0            0.0            9.450218E-13   0.0            0.0            0.0                           
            97      G      0.0            0.0           -6.110668E-13   0.0            0.0            0.0                           
1     2 X 2 X 10  FIXED-FREE BEAM USING RECTANGULAR CHEXA2 ELEMENTS         /    95 SUN SOLARIS NASTRAN    / MAY 17, 95 / PAGE    24
      NASTRAN DEMONSTRATION PROBLEM NO. D01-09-1A                                                                                   
0     UNIFORM STRESS.                                                                                        SUBCASE 1              
 
                    S T R E S S E S   I N   S O L I D   H E X A H E D R O N   E L E M E N T S   ( C H E X A 2 )
 
                                                                                                           OCTAHEDRAL    PRESSURE
      ELEMENT-ID        SIGMA-XX      SIGMA-YY      SIGMA-ZZ       TAU-YZ        TAU-XZ        TAU-XY        TAU-0          P
               1      1.500000E+03  1.907349E-06  0.0           0.0           6.103516E-05  6.103516E-05  7.071069E+02 -5.000001E+02
               2      1.500000E+03 -3.814697E-06  1.525879E-05  0.0           6.103516E-05  6.103516E-05  7.071069E+02 -5.000001E+02
               3      1.500000E+03 -3.814697E-06  1.144409E-05 -7.629395E-06  6.103516E-05  6.103516E-05  7.071069E+02 -5.000001E+02
               4      1.500000E+03 -3.814697E-06  0.0           3.814697E-06  6.103516E-05  6.103516E-05  7.071069E+02 -5.000001E+02
               5      1.500000E+03 -7.629395E-06  0.0           0.0           1.220703E-04  1.220703E-04  7.071069E+02 -5.000001E+02
               6      1.500000E+03 -1.525879E-05  0.0           0.0           6.103516E-05  1.220703E-04  7.071069E+02 -5.000001E+02
               7      1.500000E+03 -1.907349E-05 -1.525879E-05 -7.629395E-06  1.220703E-04  1.220703E-04  7.071069E+02 -5.000001E+02
               8      1.500000E+03 -3.814697E-06  0.0           3.814697E-06  6.103516E-05  1.220703E-04  7.071069E+02 -5.000001E+02
               9      1.500000E+03 -1.068115E-04 -9.155273E-05  0.0           0.0           0.0           7.071069E+02 -5.000000E+02
              10      1.500000E+03 -7.629395E-05 -9.155273E-05  0.0          -1.220703E-04  0.0           7.071069E+02 -4.999999E+02
              11      1.500000E+03  3.051758E-05 -6.103516E-05 -7.629395E-06  0.0          -1.220703E-04  7.071069E+02 -5.000001E+02
              12      1.500000E+03 -4.577637E-05 -3.051758E-05  3.814697E-06 -1.220703E-04 -1.220703E-04  7.071069E+02 -5.000000E+02
              13      1.500000E+03  9.155273E-05  9.155273E-05  0.0           2.441406E-04  2.441406E-04  7.071069E+02 -5.000002E+02
              14      1.500000E+03  6.103516E-05  1.220703E-04  0.0           2.441406E-04  2.441406E-04  7.071070E+02 -5.000002E+02
              15      1.500000E+03  1.220703E-04  3.051758E-05 -7.629395E-06  2.441406E-04  2.441406E-04  7.071070E+02 -5.000002E+02
              16      1.500000E+03 -3.051758E-05 -3.051758E-05  3.814697E-06  2.441406E-04  2.441406E-04  7.071069E+02 -5.000001E+02
              17      1.500001E+03 -3.051758E-05  2.136230E-04  0.0           0.0           0.0           7.071072E+02 -5.000005E+02
              18      1.500000E+03  9.155273E-05  6.103516E-05  0.0          -2.441406E-04  0.0           7.071069E+02 -5.000002E+02
              19      1.500001E+03  9.155273E-05  9.155273E-05 -7.629395E-06  0.0          -2.441406E-04  7.071070E+02 -5.000003E+02
              20      1.500001E+03  3.051758E-05  1.831055E-04  3.814697E-06 -2.441406E-04 -2.441406E-04  7.071072E+02 -5.000003E+02
              21      1.500000E+03 -3.662109E-04 -1.220703E-04  0.0           0.0           0.0           7.071068E+02 -4.999998E+02
              22      1.499999E+03 -1.220703E-04 -1.831055E-04  0.0           0.0           0.0           7.071065E+02 -4.999997E+02
              23      1.500000E+03  6.103516E-05  0.0          -7.629395E-06  0.0           0.0           7.071069E+02 -5.000001E+02
              24      1.500000E+03 -6.103516E-05  0.0           3.814697E-06  0.0           0.0           7.071068E+02 -5.000000E+02
              25      1.500000E+03  6.103516E-05  6.103516E-05  0.0           0.0           0.0           7.071069E+02 -5.000001E+02
              26      1.500001E+03  0.0           3.051758E-04  0.0           0.0           0.0           7.071072E+02 -5.000005E+02
              27      1.500001E+03  6.103516E-05  0.0          -7.629395E-06  0.0           0.0           7.071075E+02 -5.000005E+02
              28      1.500000E+03  1.220703E-04  1.220703E-04  3.814697E-06  0.0           0.0           7.071069E+02 -5.000002E+02
              29      1.500000E+03  6.103516E-05  6.103516E-05  0.0           0.0           0.0           7.071069E+02 -5.000001E+02
              30      1.500000E+03 -6.103516E-05 -6.103516E-05  0.0           4.882812E-04  0.0           7.071068E+02 -5.000000E+02
              31      1.500000E+03  0.0           0.0          -7.629395E-06  0.0           4.882812E-04  7.071069E+02 -5.000001E+02
              32      1.500000E+03  1.220703E-04  1.220703E-04  3.814697E-06  4.882812E-04  4.882812E-04  7.071065E+02 -4.999999E+02
              33      1.500001E+03  6.103516E-05  6.103516E-05  0.0           0.0           0.0           7.071072E+02 -5.000003E+02
              34      1.500000E+03  6.103516E-05  6.103516E-05  0.0           0.0           0.0           7.071070E+02 -5.000002E+02
              35      1.500002E+03  1.220703E-04  3.662109E-04 -7.629395E-06  0.0           0.0           7.071075E+02 -5.000007E+02
              36      1.500000E+03  0.0          -6.103516E-05  3.814697E-06  0.0           0.0           7.071069E+02 -5.000001E+02
              37      1.500001E+03  1.831055E-04  2.441406E-04  0.0           0.0           0.0           7.071071E+02 -5.000005E+02
              38      1.500000E+03  0.0          -1.220703E-04  0.0           0.0           0.0           7.071069E+02 -5.000000E+02
              39      1.500001E+03  1.220703E-04  1.831055E-04 -7.629395E-06  0.0           0.0           7.071072E+02 -5.000004E+02
              40      1.500000E+03  0.0           0.0           3.814697E-06  0.0           0.0           7.071069E+02 -5.000001E+02
1     2 X 2 X 10  FIXED-FREE BEAM USING RECTANGULAR CHEXA2 ELEMENTS         /    95 SUN SOLARIS NASTRAN    / MAY 17, 95 / PAGE    25
      NASTRAN DEMONSTRATION PROBLEM NO. D01-09-1A                                                                                   

      TWO PLANES OF SYMMETRY                                                                                                        




0*** SYSTEM WARNING MESSAGE 3022
+                                 (SEE PROG. MANUAL SEC. 4.9.7, OR USERS' MANUAL P. 6.5-3)
     DATA BLOCK ONRGY1   MAY BE REQUIRED AS INPUT AND IS NOT OUTPUT BY A PREVIOUS MODULE IN THE CURRENT DMAP ROUTE.




                                        * * * END OF JOB * * *
1
 JOB TITLE =  2 X 2 X 10  FIXED-FREE BEAM USING RECTANGULAR CHEXA2 ELEMENTS      
 DATE:  5/17/95
 END TIME: 14:59:20
 TOTAL WALL CLOCK TIME      2 SEC.
 
