





                                  ****
                                *      *
                               *        *
                               *  N A S T R A N
                               *        *
                                *      *
                                  ****


                             SUN COMPUTER SYSTEMS    
                                SOLARIS VERSION

                          SYSTEM RELEASE -  1995 ED.

                                DISTRIBUTED BY

         COMPUTER SOFTWARE MANAGEMENT AND INFORMATION CENTER (COSMIC)
                 UNIVERSITY OF GEORGIA, ATHENS, GEORGIA 30602
                 PHONE: (706)542-3265      FAX: (706)542-4807
1                                                                           /    95 SUN SOLARIS NASTRAN    / MAY 17, 95 / PAGE     2
                                                                                                                                    
0                                                                                                                                   
                                                                                                         
                                                                                                         
                         INSTALLATION CENTER USER INFORMATION GIVEN IN THIS SECTION                      
                                                                                                         
                                     *********************************************                       
                                     *                                           *                       
                                     *  PLEASE READ THE COMMENT IN DEMO PROBLEM  *                       
                                     *  D01002A ABOUT SYSTEM TIMING CONSTANTS    *                       
                                     *                                           *                       
                                     *********************************************                       
                                                                                                         
                         ===X=    TOP OF PAGE REQUEST IF 'X' IS REPLACED BY '='                          
                                                                                                         
1                                                                           /    95 SUN SOLARIS NASTRAN    / MAY 17, 95 / PAGE     3
                                                                                                                                    
0                                                                                                                                   
0*** USER INFORMATION MESSAGE 225, GINO TIME CONSTANTS ARE BEING COMPUTED
     (SEE NASINFO FILE FOR ELIMINATION OF THESE COMPUTATIONS)
1                                                                           /    95 SUN SOLARIS NASTRAN    / MAY 17, 95 / PAGE     4
                                                                                                                                    
0        N A S T R A N    E X E C U T I V E    C O N T R O L    D E C K    E C H O                                                  
0                                                                                                                                   
                                                                                                                                    
                                                                                                                                    
     ID    D01033A,NASTRAN                                                           
     APP   DISPLACEMENT                                                              
     SOL   1,1                                                                       
     TIME  20                                                                        
     CEND                                                                            


0*** USER INFORMATION MESSAGE, TURN DIAG 48 ON FOR NASTRAN RELEASE NEWS, DIAG DEFINITION, NEW DMAP
         MODULES AND NEW BULKDATA CARDS INFORMATION
1     FREE RECTANGULAR PLATE WITH THERMAL LOADING (QDMEM2 ELEMENTS)         /    95 SUN SOLARIS NASTRAN    / MAY 17, 95 / PAGE     5
      NASTRAN DEMONSTRATION PROBLEM NO. D01-03-3A                                                                                   
0     LINEARLY VARYING THERMAL LOAD - TEMPERATURE DEPENDENT MATERIAL                                                                
0                                        C A S E    C O N T R O L   D E C K   E C H O                                               
                 CARD                                                                                                               
                 COUNT                                                                                                              
                  1      TITLE    = FREE RECTANGULAR PLATE WITH THERMAL LOADING (QDMEM2 ELEMENTS)        
                  2      SUBTITLE = NASTRAN DEMONSTRATION PROBLEM NO. D01-03-3A                          
                  3      LABEL = LINEARLY VARYING THERMAL LOAD - TEMPERATURE DEPENDENT MATERIAL          
                  4      SPC   = 1                                                                       
                  5      TEMPERATURE = 1                                                                 
                  6      OUTPUT                                                                          
                  7         SET 1 = 1 THRU 13, 79 THRU 91, 157 THRU 169, 235 THRU 247                    
                  8         SET 2 = 1 THRU 26                                                            
                  9         OLOAD = 2                                                                    
                 10         DISPLACEMENTS = 1                                                            
                 11      $          STRESSES FOR POINTS ON PUBLISHED CURVES                              
                 12         SET 3 = 1 THRU 12, 15,20, 28,33, 41,46, 54,59, 67,72, 80,85, 93,98,          
                 13                 106,111, 118 THRU 129, 132,137, 145,150, 158,163, 171,176,           
                 14                 184,189, 197,202, 210,215, 223,228                                   
                 15         STRESSES = 3                                                                 
                 16      BEGIN BULK                                                                      


                        (NO. OF UNSORTED BULK DATA CARDS READ =   595, INCLUDING   0 COMMENT CARDS)
0*** USER INFORMATION MESSAGE 207, BULK DATA DECK IS NOT SORTED. NASTRAN WILL RE-ORDER THE INPUT DECK.
1     FREE RECTANGULAR PLATE WITH THERMAL LOADING (QDMEM2 ELEMENTS)         /    95 SUN SOLARIS NASTRAN    / MAY 17, 95 / PAGE     6
      NASTRAN DEMONSTRATION PROBLEM NO. D01-03-3A                                                                                   
0     LINEARLY VARYING THERMAL LOAD - TEMPERATURE DEPENDENT MATERIAL                                                                
0                                                 S O R T E D   B U L K    D A T A    E C H O                                       
                     CARD                                                                                                           
                     COUNT        ---1--- +++2+++ ---3--- +++4+++ ---5--- +++6+++ ---7--- +++8+++ ---9--- +++10+++                  
                    1-        CNGRNT  1       14      27      40      53      66      79      92      +CNG11  
                    2-        +CNG11  105     118     131     144     157     170     183     196     +CNG12  
                    3-        +CNG12  209     222                                                             
                    4-        CNGRNT  2       15      28      41      54      67      80      93      +CNG21  
                    5-        +CNG21  106     119     132     145     158     171     184     197     +CNG22  
                    6-        +CNG22  210     223                                                             
                    7-        CNGRNT  3       16      29      42      55      68      81      94      +CNG31  
                    8-        +CNG31  107     120     133     146     159     172     185     198     +CNG32  
                    9-        +CNG32  211     224                                                             
                   10-        CNGRNT  4       17      30      43      56      69      82      95      +CNG41  
                   11-        +CNG41  108     121     134     147     160     173     186     199     +CNG42  
                   12-        +CNG42  212     225                                                             
                   13-        CNGRNT  5       18      31      44      57      70      83      96      +CNG51  
                   14-        +CNG51  109     122     135     148     161     174     187     200     +CNG52  
                   15-        +CNG52  213     226                                                             
                   16-        CNGRNT  6       19      32      45      58      71      84      97      +CNG61  
                   17-        +CNG61  110     123     136     149     162     175     188     201     +CNG62  
                   18-        +CNG62  214     227                                                             
                   19-        CNGRNT  7       20      33      46      59      72      85      98      +CNG71  
                   20-        +CNG71  111     124     137     150     163     176     189     202     +CNG72  
                   21-        +CNG72  215     228                                                             
                   22-        CNGRNT  8       21      34      47      60      73      86      99      +CNG81  
                   23-        +CNG81  112     125     138     151     164     177     190     203     +CNG82  
                   24-        +CNG82  216     229                                                             
                   25-        CNGRNT  9       22      35      48      61      74      87      100     +CNG91  
                   26-        +CNG91  113     126     139     152     165     178     191     204     +CNG92  
                   27-        +CNG92  217     230                                                             
                   28-        CNGRNT  10      23      36      49      62      75      88      101     +CNG101 
                   29-        +CNG101 114     127     140     153     166     179     192     205     +CNG102 
                   30-        +CNG102 218     231                                                             
                   31-        CNGRNT  11      24      37      50      63      76      89      102     +CNG111 
                   32-        +CNG111 115     128     141     154     167     180     193     206     +CNG112 
                   33-        +CNG112 219     232                                                             
                   34-        CNGRNT  12      25      38      51      64      77      90      103     +CNG121 
                   35-        +CNG121 116     129     142     155     168     181     194     207     +CNG122 
                   36-        +CNG122 220     233                                                             
                   37-        CQDMEM2 1       21      1       2       15      14      .00                     
                   38-        CQDMEM2 2       21      2       3       16      15      .00                     
                   39-        CQDMEM2 3       21      3       4       17      16      .00                     
                   40-        CQDMEM2 4       21      4       5       18      17      .00                     
                   41-        CQDMEM2 5       21      5       6       19      18      .00                     
                   42-        CQDMEM2 6       21      6       7       20      19      .00                     
                   43-        CQDMEM2 7       21      7       8       21      20      .00                     
                   44-        CQDMEM2 8       21      8       9       22      21      .00                     
                   45-        CQDMEM2 9       21      9       10      23      22      .00                     
                   46-        CQDMEM2 10      21      10      11      24      23      .00                     
                   47-        CQDMEM2 11      21      11      12      25      24      .00                     
1     FREE RECTANGULAR PLATE WITH THERMAL LOADING (QDMEM2 ELEMENTS)         /    95 SUN SOLARIS NASTRAN    / MAY 17, 95 / PAGE     7
      NASTRAN DEMONSTRATION PROBLEM NO. D01-03-3A                                                                                   

      LINEARLY VARYING THERMAL LOAD - TEMPERATURE DEPENDENT MATERIAL                                                                

                                                  S O R T E D   B U L K    D A T A    E C H O                                       
                     CARD                                                                                                           
                     COUNT        ---1--- +++2+++ ---3--- +++4+++ ---5--- +++6+++ ---7--- +++8+++ ---9--- +++10+++                  
                   48-        CQDMEM2 12      21      12      13      26      25      .00                     
                   49-        CQDMEM2 14      21      14      15      28      27      .00                     
                   50-        CQDMEM2 15      21      15      16      29      28      .00                     
                   51-        CQDMEM2 16      21      16      17      30      29      .00                     
                   52-        CQDMEM2 17      21      17      18      31      30      .00                     
                   53-        CQDMEM2 18      21      18      19      32      31      .00                     
                   54-        CQDMEM2 19      21      19      20      33      32      .00                     
                   55-        CQDMEM2 20      21      20      21      34      33      .00                     
                   56-        CQDMEM2 21      21      21      22      35      34      .00                     
                   57-        CQDMEM2 22      21      22      23      36      35      .00                     
                   58-        CQDMEM2 23      21      23      24      37      36      .00                     
                   59-        CQDMEM2 24      21      24      25      38      37      .00                     
                   60-        CQDMEM2 25      21      25      26      39      38      .00                     
                   61-        CQDMEM2 27      21      27      28      41      40      .00                     
                   62-        CQDMEM2 28      21      28      29      42      41      .00                     
                   63-        CQDMEM2 29      21      29      30      43      42      .00                     
                   64-        CQDMEM2 30      21      30      31      44      43      .00                     
                   65-        CQDMEM2 31      21      31      32      45      44      .00                     
                   66-        CQDMEM2 32      21      32      33      46      45      .00                     
                   67-        CQDMEM2 33      21      33      34      47      46      .00                     
                   68-        CQDMEM2 34      21      34      35      48      47      .00                     
                   69-        CQDMEM2 35      21      35      36      49      48      .00                     
                   70-        CQDMEM2 36      21      36      37      50      49      .00                     
                   71-        CQDMEM2 37      21      37      38      51      50      .00                     
                   72-        CQDMEM2 38      21      38      39      52      51      .00                     
                   73-        CQDMEM2 40      21      40      41      54      53      .00                     
                   74-        CQDMEM2 41      21      41      42      55      54      .00                     
                   75-        CQDMEM2 42      21      42      43      56      55      .00                     
                   76-        CQDMEM2 43      21      43      44      57      56      .00                     
                   77-        CQDMEM2 44      21      44      45      58      57      .00                     
                   78-        CQDMEM2 45      21      45      46      59      58      .00                     
                   79-        CQDMEM2 46      21      46      47      60      59      .00                     
                   80-        CQDMEM2 47      21      47      48      61      60      .00                     
                   81-        CQDMEM2 48      21      48      49      62      61      .00                     
                   82-        CQDMEM2 49      21      49      50      63      62      .00                     
                   83-        CQDMEM2 50      21      50      51      64      63      .00                     
                   84-        CQDMEM2 51      21      51      52      65      64      .00                     
                   85-        CQDMEM2 53      21      53      54      67      66      .00                     
                   86-        CQDMEM2 54      21      54      55      68      67      .00                     
                   87-        CQDMEM2 55      21      55      56      69      68      .00                     
                   88-        CQDMEM2 56      21      56      57      70      69      .00                     
                   89-        CQDMEM2 57      21      57      58      71      70      .00                     
                   90-        CQDMEM2 58      21      58      59      72      71      .00                     
                   91-        CQDMEM2 59      21      59      60      73      72      .00                     
                   92-        CQDMEM2 60      21      60      61      74      73      .00                     
                   93-        CQDMEM2 61      21      61      62      75      74      .00                     
                   94-        CQDMEM2 62      21      62      63      76      75      .00                     
1     FREE RECTANGULAR PLATE WITH THERMAL LOADING (QDMEM2 ELEMENTS)         /    95 SUN SOLARIS NASTRAN    / MAY 17, 95 / PAGE     8
      NASTRAN DEMONSTRATION PROBLEM NO. D01-03-3A                                                                                   

      LINEARLY VARYING THERMAL LOAD - TEMPERATURE DEPENDENT MATERIAL                                                                

                                                  S O R T E D   B U L K    D A T A    E C H O                                       
                     CARD                                                                                                           
                     COUNT        ---1--- +++2+++ ---3--- +++4+++ ---5--- +++6+++ ---7--- +++8+++ ---9--- +++10+++                  
                   95-        CQDMEM2 63      21      63      64      77      76      .00                     
                   96-        CQDMEM2 64      21      64      65      78      77      .00                     
                   97-        CQDMEM2 66      21      66      67      80      79      .00                     
                   98-        CQDMEM2 67      21      67      68      81      80      .00                     
                   99-        CQDMEM2 68      21      68      69      82      81      .00                     
                  100-        CQDMEM2 69      21      69      70      83      82      .00                     
                  101-        CQDMEM2 70      21      70      71      84      83      .00                     
                  102-        CQDMEM2 71      21      71      72      85      84      .00                     
                  103-        CQDMEM2 72      21      72      73      86      85      .00                     
                  104-        CQDMEM2 73      21      73      74      87      86      .00                     
                  105-        CQDMEM2 74      21      74      75      88      87      .00                     
                  106-        CQDMEM2 75      21      75      76      89      88      .00                     
                  107-        CQDMEM2 76      21      76      77      90      89      .00                     
                  108-        CQDMEM2 77      21      77      78      91      90      .00                     
                  109-        CQDMEM2 79      21      79      80      93      92      .00                     
                  110-        CQDMEM2 80      21      80      81      94      93      .00                     
                  111-        CQDMEM2 81      21      81      82      95      94      .00                     
                  112-        CQDMEM2 82      21      82      83      96      95      .00                     
                  113-        CQDMEM2 83      21      83      84      97      96      .00                     
                  114-        CQDMEM2 84      21      84      85      98      97      .00                     
                  115-        CQDMEM2 85      21      85      86      99      98      .00                     
                  116-        CQDMEM2 86      21      86      87      100     99      .00                     
                  117-        CQDMEM2 87      21      87      88      101     100     .00                     
                  118-        CQDMEM2 88      21      88      89      102     101     .00                     
                  119-        CQDMEM2 89      21      89      90      103     102     .00                     
                  120-        CQDMEM2 90      21      90      91      104     103     .00                     
                  121-        CQDMEM2 92      21      92      93      106     105     .00                     
                  122-        CQDMEM2 93      21      93      94      107     106     .00                     
                  123-        CQDMEM2 94      21      94      95      108     107     .00                     
                  124-        CQDMEM2 95      21      95      96      109     108     .00                     
                  125-        CQDMEM2 96      21      96      97      110     109     .00                     
                  126-        CQDMEM2 97      21      97      98      111     110     .00                     
                  127-        CQDMEM2 98      21      98      99      112     111     .00                     
                  128-        CQDMEM2 99      21      99      100     113     112     .00                     
                  129-        CQDMEM2 100     21      100     101     114     113     .00                     
                  130-        CQDMEM2 101     21      101     102     115     114     .00                     
                  131-        CQDMEM2 102     21      102     103     116     115     .00                     
                  132-        CQDMEM2 103     21      103     104     117     116     .00                     
                  133-        CQDMEM2 105     21      105     106     119     118     .00                     
                  134-        CQDMEM2 106     21      106     107     120     119     .00                     
                  135-        CQDMEM2 107     21      107     108     121     120     .00                     
                  136-        CQDMEM2 108     21      108     109     122     121     .00                     
                  137-        CQDMEM2 109     21      109     110     123     122     .00                     
                  138-        CQDMEM2 110     21      110     111     124     123     .00                     
                  139-        CQDMEM2 111     21      111     112     125     124     .00                     
                  140-        CQDMEM2 112     21      112     113     126     125     .00                     
                  141-        CQDMEM2 113     21      113     114     127     126     .00                     
1     FREE RECTANGULAR PLATE WITH THERMAL LOADING (QDMEM2 ELEMENTS)         /    95 SUN SOLARIS NASTRAN    / MAY 17, 95 / PAGE     9
      NASTRAN DEMONSTRATION PROBLEM NO. D01-03-3A                                                                                   

      LINEARLY VARYING THERMAL LOAD - TEMPERATURE DEPENDENT MATERIAL                                                                

                                                  S O R T E D   B U L K    D A T A    E C H O                                       
                     CARD                                                                                                           
                     COUNT        ---1--- +++2+++ ---3--- +++4+++ ---5--- +++6+++ ---7--- +++8+++ ---9--- +++10+++                  
                  142-        CQDMEM2 114     21      114     115     128     127     .00                     
                  143-        CQDMEM2 115     21      115     116     129     128     .00                     
                  144-        CQDMEM2 116     21      116     117     130     129     .00                     
                  145-        CQDMEM2 118     21      118     119     132     131     .00                     
                  146-        CQDMEM2 119     21      119     120     133     132     .00                     
                  147-        CQDMEM2 120     21      120     121     134     133     .00                     
                  148-        CQDMEM2 121     21      121     122     135     134     .00                     
                  149-        CQDMEM2 122     21      122     123     136     135     .00                     
                  150-        CQDMEM2 123     21      123     124     137     136     .00                     
                  151-        CQDMEM2 124     21      124     125     138     137     .00                     
                  152-        CQDMEM2 125     21      125     126     139     138     .00                     
                  153-        CQDMEM2 126     21      126     127     140     139     .00                     
                  154-        CQDMEM2 127     21      127     128     141     140     .00                     
                  155-        CQDMEM2 128     21      128     129     142     141     .00                     
                  156-        CQDMEM2 129     21      129     130     143     142     .00                     
                  157-        CQDMEM2 131     21      131     132     145     144     .00                     
                  158-        CQDMEM2 132     21      132     133     146     145     .00                     
                  159-        CQDMEM2 133     21      133     134     147     146     .00                     
                  160-        CQDMEM2 134     21      134     135     148     147     .00                     
                  161-        CQDMEM2 135     21      135     136     149     148     .00                     
                  162-        CQDMEM2 136     21      136     137     150     149     .00                     
                  163-        CQDMEM2 137     21      137     138     151     150     .00                     
                  164-        CQDMEM2 138     21      138     139     152     151     .00                     
                  165-        CQDMEM2 139     21      139     140     153     152     .00                     
                  166-        CQDMEM2 140     21      140     141     154     153     .00                     
                  167-        CQDMEM2 141     21      141     142     155     154     .00                     
                  168-        CQDMEM2 142     21      142     143     156     155     .00                     
                  169-        CQDMEM2 144     21      144     145     158     157     .00                     
                  170-        CQDMEM2 145     21      145     146     159     158     .00                     
                  171-        CQDMEM2 146     21      146     147     160     159     .00                     
                  172-        CQDMEM2 147     21      147     148     161     160     .00                     
                  173-        CQDMEM2 148     21      148     149     162     161     .00                     
                  174-        CQDMEM2 149     21      149     150     163     162     .00                     
                  175-        CQDMEM2 150     21      150     151     164     163     .00                     
                  176-        CQDMEM2 151     21      151     152     165     164     .00                     
                  177-        CQDMEM2 152     21      152     153     166     165     .00                     
                  178-        CQDMEM2 153     21      153     154     167     166     .00                     
                  179-        CQDMEM2 154     21      154     155     168     167     .00                     
                  180-        CQDMEM2 155     21      155     156     169     168     .00                     
                  181-        CQDMEM2 157     21      157     158     171     170     .00                     
                  182-        CQDMEM2 158     21      158     159     172     171     .00                     
                  183-        CQDMEM2 159     21      159     160     173     172     .00                     
                  184-        CQDMEM2 160     21      160     161     174     173     .00                     
                  185-        CQDMEM2 161     21      161     162     175     174     .00                     
                  186-        CQDMEM2 162     21      162     163     176     175     .00                     
                  187-        CQDMEM2 163     21      163     164     177     176     .00                     
                  188-        CQDMEM2 164     21      164     165     178     177     .00                     
1     FREE RECTANGULAR PLATE WITH THERMAL LOADING (QDMEM2 ELEMENTS)         /    95 SUN SOLARIS NASTRAN    / MAY 17, 95 / PAGE    10
      NASTRAN DEMONSTRATION PROBLEM NO. D01-03-3A                                                                                   

      LINEARLY VARYING THERMAL LOAD - TEMPERATURE DEPENDENT MATERIAL                                                                

                                                  S O R T E D   B U L K    D A T A    E C H O                                       
                     CARD                                                                                                           
                     COUNT        ---1--- +++2+++ ---3--- +++4+++ ---5--- +++6+++ ---7--- +++8+++ ---9--- +++10+++                  
                  189-        CQDMEM2 165     21      165     166     179     178     .00                     
                  190-        CQDMEM2 166     21      166     167     180     179     .00                     
                  191-        CQDMEM2 167     21      167     168     181     180     .00                     
                  192-        CQDMEM2 168     21      168     169     182     181     .00                     
                  193-        CQDMEM2 170     21      170     171     184     183     .00                     
                  194-        CQDMEM2 171     21      171     172     185     184     .00                     
                  195-        CQDMEM2 172     21      172     173     186     185     .00                     
                  196-        CQDMEM2 173     21      173     174     187     186     .00                     
                  197-        CQDMEM2 174     21      174     175     188     187     .00                     
                  198-        CQDMEM2 175     21      175     176     189     188     .00                     
                  199-        CQDMEM2 176     21      176     177     190     189     .00                     
                  200-        CQDMEM2 177     21      177     178     191     190     .00                     
                  201-        CQDMEM2 178     21      178     179     192     191     .00                     
                  202-        CQDMEM2 179     21      179     180     193     192     .00                     
                  203-        CQDMEM2 180     21      180     181     194     193     .00                     
                  204-        CQDMEM2 181     21      181     182     195     194     .00                     
                  205-        CQDMEM2 183     21      183     184     197     196     .00                     
                  206-        CQDMEM2 184     21      184     185     198     197     .00                     
                  207-        CQDMEM2 185     21      185     186     199     198     .00                     
                  208-        CQDMEM2 186     21      186     187     200     199     .00                     
                  209-        CQDMEM2 187     21      187     188     201     200     .00                     
                  210-        CQDMEM2 188     21      188     189     202     201     .00                     
                  211-        CQDMEM2 189     21      189     190     203     202     .00                     
                  212-        CQDMEM2 190     21      190     191     204     203     .00                     
                  213-        CQDMEM2 191     21      191     192     205     204     .00                     
                  214-        CQDMEM2 192     21      192     193     206     205     .00                     
                  215-        CQDMEM2 193     21      193     194     207     206     .00                     
                  216-        CQDMEM2 194     21      194     195     208     207     .00                     
                  217-        CQDMEM2 196     21      196     197     210     209     .00                     
                  218-        CQDMEM2 197     21      197     198     211     210     .00                     
                  219-        CQDMEM2 198     21      198     199     212     211     .00                     
                  220-        CQDMEM2 199     21      199     200     213     212     .00                     
                  221-        CQDMEM2 200     21      200     201     214     213     .00                     
                  222-        CQDMEM2 201     21      201     202     215     214     .00                     
                  223-        CQDMEM2 202     21      202     203     216     215     .00                     
                  224-        CQDMEM2 203     21      203     204     217     216     .00                     
                  225-        CQDMEM2 204     21      204     205     218     217     .00                     
                  226-        CQDMEM2 205     21      205     206     219     218     .00                     
                  227-        CQDMEM2 206     21      206     207     220     219     .00                     
                  228-        CQDMEM2 207     21      207     208     221     220     .00                     
                  229-        CQDMEM2 209     21      209     210     223     222     .00                     
                  230-        CQDMEM2 210     21      210     211     224     223     .00                     
                  231-        CQDMEM2 211     21      211     212     225     224     .00                     
                  232-        CQDMEM2 212     21      212     213     226     225     .00                     
                  233-        CQDMEM2 213     21      213     214     227     226     .00                     
                  234-        CQDMEM2 214     21      214     215     228     227     .00                     
                  235-        CQDMEM2 215     21      215     216     229     228     .00                     
1     FREE RECTANGULAR PLATE WITH THERMAL LOADING (QDMEM2 ELEMENTS)         /    95 SUN SOLARIS NASTRAN    / MAY 17, 95 / PAGE    11
      NASTRAN DEMONSTRATION PROBLEM NO. D01-03-3A                                                                                   

      LINEARLY VARYING THERMAL LOAD - TEMPERATURE DEPENDENT MATERIAL                                                                

                                                  S O R T E D   B U L K    D A T A    E C H O                                       
                     CARD                                                                                                           
                     COUNT        ---1--- +++2+++ ---3--- +++4+++ ---5--- +++6+++ ---7--- +++8+++ ---9--- +++10+++                  
                  236-        CQDMEM2 216     21      216     217     230     229     .00                     
                  237-        CQDMEM2 217     21      217     218     231     230     .00                     
                  238-        CQDMEM2 218     21      218     219     232     231     .00                     
                  239-        CQDMEM2 219     21      219     220     233     232     .00                     
                  240-        CQDMEM2 220     21      220     221     234     233     .00                     
                  241-        CQDMEM2 222     21      222     223     236     235     .00                     
                  242-        CQDMEM2 223     21      223     224     237     236     .00                     
                  243-        CQDMEM2 224     21      224     225     238     237     .00                     
                  244-        CQDMEM2 225     21      225     226     239     238     .00                     
                  245-        CQDMEM2 226     21      226     227     240     239     .00                     
                  246-        CQDMEM2 227     21      227     228     241     240     .00                     
                  247-        CQDMEM2 228     21      228     229     242     241     .00                     
                  248-        CQDMEM2 229     21      229     230     243     242     .00                     
                  249-        CQDMEM2 230     21      230     231     244     243     .00                     
                  250-        CQDMEM2 231     21      231     232     245     244     .00                     
                  251-        CQDMEM2 232     21      232     233     246     245     .00                     
                  252-        CQDMEM2 233     21      233     234     247     246     .00                     
                  253-        GRDSET                                                  3456                    
                  254-        GRID    1               .0      .0      .0                                      
                  255-        GRID    2               1.0     .0      .0                                      
                  256-        GRID    3               2.0     .0      .0                                      
                  257-        GRID    4               3.0     .0      .0                                      
                  258-        GRID    5               4.0     .0      .0                                      
                  259-        GRID    6               5.0     .0      .0                                      
                  260-        GRID    7               6.0     .0      .0                                      
                  261-        GRID    8               7.0     .0      .0                                      
                  262-        GRID    9               8.0     .0      .0                                      
                  263-        GRID    10              9.0     .0      .0                                      
                  264-        GRID    11              10.0    .0      .0                                      
                  265-        GRID    12              11.0    .0      .0                                      
                  266-        GRID    13              12.0    .0      .0                                      
                  267-        GRID    14              .0      1.0     .0                                      
                  268-        GRID    15              1.0     1.0     .0                                      
                  269-        GRID    16              2.0     1.0     .0                                      
                  270-        GRID    17              3.0     1.0     .0                                      
                  271-        GRID    18              4.0     1.0     .0                                      
                  272-        GRID    19              5.0     1.0     .0                                      
                  273-        GRID    20              6.0     1.0     .0                                      
                  274-        GRID    21              7.0     1.0     .0                                      
                  275-        GRID    22              8.0     1.0     .0                                      
                  276-        GRID    23              9.0     1.0     .0                                      
                  277-        GRID    24              10.0    1.0     .0                                      
                  278-        GRID    25              11.0    1.0     .0                                      
                  279-        GRID    26              12.0    1.0     .0                                      
                  280-        GRID    27              .0      2.0     .0                                      
                  281-        GRID    28              1.0     2.0     .0                                      
                  282-        GRID    29              2.0     2.0     .0                                      
1     FREE RECTANGULAR PLATE WITH THERMAL LOADING (QDMEM2 ELEMENTS)         /    95 SUN SOLARIS NASTRAN    / MAY 17, 95 / PAGE    12
      NASTRAN DEMONSTRATION PROBLEM NO. D01-03-3A                                                                                   

      LINEARLY VARYING THERMAL LOAD - TEMPERATURE DEPENDENT MATERIAL                                                                

                                                  S O R T E D   B U L K    D A T A    E C H O                                       
                     CARD                                                                                                           
                     COUNT        ---1--- +++2+++ ---3--- +++4+++ ---5--- +++6+++ ---7--- +++8+++ ---9--- +++10+++                  
                  283-        GRID    30              3.0     2.0     .0                                      
                  284-        GRID    31              4.0     2.0     .0                                      
                  285-        GRID    32              5.0     2.0     .0                                      
                  286-        GRID    33              6.0     2.0     .0                                      
                  287-        GRID    34              7.0     2.0     .0                                      
                  288-        GRID    35              8.0     2.0     .0                                      
                  289-        GRID    36              9.0     2.0     .0                                      
                  290-        GRID    37              10.0    2.0     .0                                      
                  291-        GRID    38              11.0    2.0     .0                                      
                  292-        GRID    39              12.0    2.0     .0                                      
                  293-        GRID    40              .0      3.0     .0                                      
                  294-        GRID    41              1.0     3.0     .0                                      
                  295-        GRID    42              2.0     3.0     .0                                      
                  296-        GRID    43              3.0     3.0     .0                                      
                  297-        GRID    44              4.0     3.0     .0                                      
                  298-        GRID    45              5.0     3.0     .0                                      
                  299-        GRID    46              6.0     3.0     .0                                      
                  300-        GRID    47              7.0     3.0     .0                                      
                  301-        GRID    48              8.0     3.0     .0                                      
                  302-        GRID    49              9.0     3.0     .0                                      
                  303-        GRID    50              10.0    3.0     .0                                      
                  304-        GRID    51              11.0    3.0     .0                                      
                  305-        GRID    52              12.0    3.0     .0                                      
                  306-        GRID    53              .0      4.0     .0                                      
                  307-        GRID    54              1.0     4.0     .0                                      
                  308-        GRID    55              2.0     4.0     .0                                      
                  309-        GRID    56              3.0     4.0     .0                                      
                  310-        GRID    57              4.0     4.0     .0                                      
                  311-        GRID    58              5.0     4.0     .0                                      
                  312-        GRID    59              6.0     4.0     .0                                      
                  313-        GRID    60              7.0     4.0     .0                                      
                  314-        GRID    61              8.0     4.0     .0                                      
                  315-        GRID    62              9.0     4.0     .0                                      
                  316-        GRID    63              10.0    4.0     .0                                      
                  317-        GRID    64              11.0    4.0     .0                                      
                  318-        GRID    65              12.0    4.0     .0                                      
                  319-        GRID    66              .0      5.0     .0                                      
                  320-        GRID    67              1.0     5.0     .0                                      
                  321-        GRID    68              2.0     5.0     .0                                      
                  322-        GRID    69              3.0     5.0     .0                                      
                  323-        GRID    70              4.0     5.0     .0                                      
                  324-        GRID    71              5.0     5.0     .0                                      
                  325-        GRID    72              6.0     5.0     .0                                      
                  326-        GRID    73              7.0     5.0     .0                                      
                  327-        GRID    74              8.0     5.0     .0                                      
                  328-        GRID    75              9.0     5.0     .0                                      
                  329-        GRID    76              10.0    5.0     .0                                      
1     FREE RECTANGULAR PLATE WITH THERMAL LOADING (QDMEM2 ELEMENTS)         /    95 SUN SOLARIS NASTRAN    / MAY 17, 95 / PAGE    13
      NASTRAN DEMONSTRATION PROBLEM NO. D01-03-3A                                                                                   

      LINEARLY VARYING THERMAL LOAD - TEMPERATURE DEPENDENT MATERIAL                                                                

                                                  S O R T E D   B U L K    D A T A    E C H O                                       
                     CARD                                                                                                           
                     COUNT        ---1--- +++2+++ ---3--- +++4+++ ---5--- +++6+++ ---7--- +++8+++ ---9--- +++10+++                  
                  330-        GRID    77              11.0    5.0     .0                                      
                  331-        GRID    78              12.0    5.0     .0                                      
                  332-        GRID    79              .0      6.0     .0                                      
                  333-        GRID    80              1.0     6.0     .0                                      
                  334-        GRID    81              2.0     6.0     .0                                      
                  335-        GRID    82              3.0     6.0     .0                                      
                  336-        GRID    83              4.0     6.0     .0                                      
                  337-        GRID    84              5.0     6.0     .0                                      
                  338-        GRID    85              6.0     6.0     .0                                      
                  339-        GRID    86              7.0     6.0     .0                                      
                  340-        GRID    87              8.0     6.0     .0                                      
                  341-        GRID    88              9.0     6.0     .0                                      
                  342-        GRID    89              10.0    6.0     .0                                      
                  343-        GRID    90              11.0    6.0     .0                                      
                  344-        GRID    91              12.0    6.0     .0                                      
                  345-        GRID    92              .0      7.0     .0                                      
                  346-        GRID    93              1.0     7.0     .0                                      
                  347-        GRID    94              2.0     7.0     .0                                      
                  348-        GRID    95              3.0     7.0     .0                                      
                  349-        GRID    96              4.0     7.0     .0                                      
                  350-        GRID    97              5.0     7.0     .0                                      
                  351-        GRID    98              6.0     7.0     .0                                      
                  352-        GRID    99              7.0     7.0     .0                                      
                  353-        GRID    100             8.0     7.0     .0                                      
                  354-        GRID    101             9.0     7.0     .0                                      
                  355-        GRID    102             10.0    7.0     .0                                      
                  356-        GRID    103             11.0    7.0     .0                                      
                  357-        GRID    104             12.0    7.0     .0                                      
                  358-        GRID    105             .0      8.0     .0                                      
                  359-        GRID    106             1.0     8.0     .0                                      
                  360-        GRID    107             2.0     8.0     .0                                      
                  361-        GRID    108             3.0     8.0     .0                                      
                  362-        GRID    109             4.0     8.0     .0                                      
                  363-        GRID    110             5.0     8.0     .0                                      
                  364-        GRID    111             6.0     8.0     .0                                      
                  365-        GRID    112             7.0     8.0     .0                                      
                  366-        GRID    113             8.0     8.0     .0                                      
                  367-        GRID    114             9.0     8.0     .0                                      
                  368-        GRID    115             10.0    8.0     .0                                      
                  369-        GRID    116             11.0    8.0     .0                                      
                  370-        GRID    117             12.0    8.0     .0                                      
                  371-        GRID    118             .0      9.0     .0                                      
                  372-        GRID    119             1.0     9.0     .0                                      
                  373-        GRID    120             2.0     9.0     .0                                      
                  374-        GRID    121             3.0     9.0     .0                                      
                  375-        GRID    122             4.0     9.0     .0                                      
                  376-        GRID    123             5.0     9.0     .0                                      
1     FREE RECTANGULAR PLATE WITH THERMAL LOADING (QDMEM2 ELEMENTS)         /    95 SUN SOLARIS NASTRAN    / MAY 17, 95 / PAGE    14
      NASTRAN DEMONSTRATION PROBLEM NO. D01-03-3A                                                                                   

      LINEARLY VARYING THERMAL LOAD - TEMPERATURE DEPENDENT MATERIAL                                                                

                                                  S O R T E D   B U L K    D A T A    E C H O                                       
                     CARD                                                                                                           
                     COUNT        ---1--- +++2+++ ---3--- +++4+++ ---5--- +++6+++ ---7--- +++8+++ ---9--- +++10+++                  
                  377-        GRID    124             6.0     9.0     .0                                      
                  378-        GRID    125             7.0     9.0     .0                                      
                  379-        GRID    126             8.0     9.0     .0                                      
                  380-        GRID    127             9.0     9.0     .0                                      
                  381-        GRID    128             10.0    9.0     .0                                      
                  382-        GRID    129             11.0    9.0     .0                                      
                  383-        GRID    130             12.0    9.0     .0                                      
                  384-        GRID    131             .0      10.0    .0                                      
                  385-        GRID    132             1.0     10.0    .0                                      
                  386-        GRID    133             2.0     10.0    .0                                      
                  387-        GRID    134             3.0     10.0    .0                                      
                  388-        GRID    135             4.0     10.0    .0                                      
                  389-        GRID    136             5.0     10.0    .0                                      
                  390-        GRID    137             6.0     10.0    .0                                      
                  391-        GRID    138             7.0     10.0    .0                                      
                  392-        GRID    139             8.0     10.0    .0                                      
                  393-        GRID    140             9.0     10.0    .0                                      
                  394-        GRID    141             10.0    10.0    .0                                      
                  395-        GRID    142             11.0    10.0    .0                                      
                  396-        GRID    143             12.0    10.0    .0                                      
                  397-        GRID    144             .0      11.0    .0                                      
                  398-        GRID    145             1.0     11.0    .0                                      
                  399-        GRID    146             2.0     11.0    .0                                      
                  400-        GRID    147             3.0     11.0    .0                                      
                  401-        GRID    148             4.0     11.0    .0                                      
                  402-        GRID    149             5.0     11.0    .0                                      
                  403-        GRID    150             6.0     11.0    .0                                      
                  404-        GRID    151             7.0     11.0    .0                                      
                  405-        GRID    152             8.0     11.0    .0                                      
                  406-        GRID    153             9.0     11.0    .0                                      
                  407-        GRID    154             10.0    11.0    .0                                      
                  408-        GRID    155             11.0    11.0    .0                                      
                  409-        GRID    156             12.0    11.0    .0                                      
                  410-        GRID    157             .0      12.0    .0                                      
                  411-        GRID    158             1.0     12.0    .0                                      
                  412-        GRID    159             2.0     12.0    .0                                      
                  413-        GRID    160             3.0     12.0    .0                                      
                  414-        GRID    161             4.0     12.0    .0                                      
                  415-        GRID    162             5.0     12.0    .0                                      
                  416-        GRID    163             6.0     12.0    .0                                      
                  417-        GRID    164             7.0     12.0    .0                                      
                  418-        GRID    165             8.0     12.0    .0                                      
                  419-        GRID    166             9.0     12.0    .0                                      
                  420-        GRID    167             10.0    12.0    .0                                      
                  421-        GRID    168             11.0    12.0    .0                                      
                  422-        GRID    169             12.0    12.0    .0                                      
                  423-        GRID    170             .0      13.0    .0                                      
1     FREE RECTANGULAR PLATE WITH THERMAL LOADING (QDMEM2 ELEMENTS)         /    95 SUN SOLARIS NASTRAN    / MAY 17, 95 / PAGE    15
      NASTRAN DEMONSTRATION PROBLEM NO. D01-03-3A                                                                                   

      LINEARLY VARYING THERMAL LOAD - TEMPERATURE DEPENDENT MATERIAL                                                                

                                                  S O R T E D   B U L K    D A T A    E C H O                                       
                     CARD                                                                                                           
                     COUNT        ---1--- +++2+++ ---3--- +++4+++ ---5--- +++6+++ ---7--- +++8+++ ---9--- +++10+++                  
                  424-        GRID    171             1.0     13.0    .0                                      
                  425-        GRID    172             2.0     13.0    .0                                      
                  426-        GRID    173             3.0     13.0    .0                                      
                  427-        GRID    174             4.0     13.0    .0                                      
                  428-        GRID    175             5.0     13.0    .0                                      
                  429-        GRID    176             6.0     13.0    .0                                      
                  430-        GRID    177             7.0     13.0    .0                                      
                  431-        GRID    178             8.0     13.0    .0                                      
                  432-        GRID    179             9.0     13.0    .0                                      
                  433-        GRID    180             10.0    13.0    .0                                      
                  434-        GRID    181             11.0    13.0    .0                                      
                  435-        GRID    182             12.0    13.0    .0                                      
                  436-        GRID    183             .0      14.0    .0                                      
                  437-        GRID    184             1.0     14.0    .0                                      
                  438-        GRID    185             2.0     14.0    .0                                      
                  439-        GRID    186             3.0     14.0    .0                                      
                  440-        GRID    187             4.0     14.0    .0                                      
                  441-        GRID    188             5.0     14.0    .0                                      
                  442-        GRID    189             6.0     14.0    .0                                      
                  443-        GRID    190             7.0     14.0    .0                                      
                  444-        GRID    191             8.0     14.0    .0                                      
                  445-        GRID    192             9.0     14.0    .0                                      
                  446-        GRID    193             10.0    14.0    .0                                      
                  447-        GRID    194             11.0    14.0    .0                                      
                  448-        GRID    195             12.0    14.0    .0                                      
                  449-        GRID    196             .0      15.0    .0                                      
                  450-        GRID    197             1.0     15.0    .0                                      
                  451-        GRID    198             2.0     15.0    .0                                      
                  452-        GRID    199             3.0     15.0    .0                                      
                  453-        GRID    200             4.0     15.0    .0                                      
                  454-        GRID    201             5.0     15.0    .0                                      
                  455-        GRID    202             6.0     15.0    .0                                      
                  456-        GRID    203             7.0     15.0    .0                                      
                  457-        GRID    204             8.0     15.0    .0                                      
                  458-        GRID    205             9.0     15.0    .0                                      
                  459-        GRID    206             10.0    15.0    .0                                      
                  460-        GRID    207             11.0    15.0    .0                                      
                  461-        GRID    208             12.0    15.0    .0                                      
                  462-        GRID    209             .0      16.0    .0                                      
                  463-        GRID    210             1.0     16.0    .0                                      
                  464-        GRID    211             2.0     16.0    .0                                      
                  465-        GRID    212             3.0     16.0    .0                                      
                  466-        GRID    213             4.0     16.0    .0                                      
                  467-        GRID    214             5.0     16.0    .0                                      
                  468-        GRID    215             6.0     16.0    .0                                      
                  469-        GRID    216             7.0     16.0    .0                                      
                  470-        GRID    217             8.0     16.0    .0                                      
1     FREE RECTANGULAR PLATE WITH THERMAL LOADING (QDMEM2 ELEMENTS)         /    95 SUN SOLARIS NASTRAN    / MAY 17, 95 / PAGE    16
      NASTRAN DEMONSTRATION PROBLEM NO. D01-03-3A                                                                                   

      LINEARLY VARYING THERMAL LOAD - TEMPERATURE DEPENDENT MATERIAL                                                                

                                                  S O R T E D   B U L K    D A T A    E C H O                                       
                     CARD                                                                                                           
                     COUNT        ---1--- +++2+++ ---3--- +++4+++ ---5--- +++6+++ ---7--- +++8+++ ---9--- +++10+++                  
                  471-        GRID    218             9.0     16.0    .0                                      
                  472-        GRID    219             10.0    16.0    .0                                      
                  473-        GRID    220             11.0    16.0    .0                                      
                  474-        GRID    221             12.0    16.0    .0                                      
                  475-        GRID    222             .0      17.0    .0                                      
                  476-        GRID    223             1.0     17.0    .0                                      
                  477-        GRID    224             2.0     17.0    .0                                      
                  478-        GRID    225             3.0     17.0    .0                                      
                  479-        GRID    226             4.0     17.0    .0                                      
                  480-        GRID    227             5.0     17.0    .0                                      
                  481-        GRID    228             6.0     17.0    .0                                      
                  482-        GRID    229             7.0     17.0    .0                                      
                  483-        GRID    230             8.0     17.0    .0                                      
                  484-        GRID    231             9.0     17.0    .0                                      
                  485-        GRID    232             10.0    17.0    .0                                      
                  486-        GRID    233             11.0    17.0    .0                                      
                  487-        GRID    234             12.0    17.0    .0                                      
                  488-        GRID    235             .0      18.0    .0                                      
                  489-        GRID    236             1.0     18.0    .0                                      
                  490-        GRID    237             2.0     18.0    .0                                      
                  491-        GRID    238             3.0     18.0    .0                                      
                  492-        GRID    239             4.0     18.0    .0                                      
                  493-        GRID    240             5.0     18.0    .0                                      
                  494-        GRID    241             6.0     18.0    .0                                      
                  495-        GRID    242             7.0     18.0    .0                                      
                  496-        GRID    243             8.0     18.0    .0                                      
                  497-        GRID    244             9.0     18.0    .0                                      
                  498-        GRID    245             10.0    18.0    .0                                      
                  499-        GRID    246             11.0    18.0    .0                                      
                  500-        GRID    247             12.0    18.0    .0                                      
                  501-        MAT1    75      10.400+6        .3              12.700-675.                     
                  502-        MATT1   75      100                                                             
                  503-        PARAM   IRES    1                                                               
                  504-        PQDMEM2 21      75      .25                                                     
                  505-        SPC1    1       1       1       14      27      40      53      66      CSPC-A  
                  506-        +SPC-A  79      92      105     118     131     144     157     170     CSPC-B  
                  507-        +SPC-B  183     196     209     222     235                                     
                  508-        SPC1    1       2       1       2       3       4       5       6       CSPC-C  
                  509-        +SPC-C  7       8       9       10      11      12      13                      
                  510-        TABLEM1 100                                                             +TM1    
                  511-        +TM1    80.     10.4+6  150.    10.15+6 200.    9.84+6  250.    9.51+6  +TM2    
                  512-        +TM2    300.    9.15+6  ENDT                                                    
                  513-        TEMP    1       1       245.000 2       232.500 3       220.000                 
                  514-        TEMP    1       4       207.500 5       195.000 6       182.500                 
                  515-        TEMP    1       7       170.000 8       157.500 9       145.000                 
                  516-        TEMP    1       10      132.500 11      120.000 12      107.500                 
                  517-        TEMP    1       13      95.000  14      245.000 15      232.500                 
1     FREE RECTANGULAR PLATE WITH THERMAL LOADING (QDMEM2 ELEMENTS)         /    95 SUN SOLARIS NASTRAN    / MAY 17, 95 / PAGE    17
      NASTRAN DEMONSTRATION PROBLEM NO. D01-03-3A                                                                                   

      LINEARLY VARYING THERMAL LOAD - TEMPERATURE DEPENDENT MATERIAL                                                                

                                                  S O R T E D   B U L K    D A T A    E C H O                                       
                     CARD                                                                                                           
                     COUNT        ---1--- +++2+++ ---3--- +++4+++ ---5--- +++6+++ ---7--- +++8+++ ---9--- +++10+++                  
                  518-        TEMP    1       16      220.000 17      207.500 18      195.000                 
                  519-        TEMP    1       19      182.500 20      170.000 21      157.500                 
                  520-        TEMP    1       22      145.000 23      132.500 24      120.000                 
                  521-        TEMP    1       25      107.500 26      95.000  27      245.000                 
                  522-        TEMP    1       28      232.500 29      220.000 30      207.500                 
                  523-        TEMP    1       31      195.000 32      182.500 33      170.000                 
                  524-        TEMP    1       34      157.500 35      145.000 36      132.500                 
                  525-        TEMP    1       37      120.000 38      107.500 39      95.000                  
                  526-        TEMP    1       40      245.000 41      232.500 42      220.000                 
                  527-        TEMP    1       43      207.500 44      195.000 45      182.500                 
                  528-        TEMP    1       46      170.000 47      157.500 48      145.000                 
                  529-        TEMP    1       49      132.500 50      120.000 51      107.500                 
                  530-        TEMP    1       52      95.000  53      245.000 54      232.500                 
                  531-        TEMP    1       55      220.000 56      207.500 57      195.000                 
                  532-        TEMP    1       58      182.500 59      170.000 60      157.500                 
                  533-        TEMP    1       61      145.000 62      132.500 63      120.000                 
                  534-        TEMP    1       64      107.500 65      95.000  66      245.000                 
                  535-        TEMP    1       67      232.500 68      220.000 69      207.500                 
                  536-        TEMP    1       70      195.000 71      182.500 72      170.000                 
                  537-        TEMP    1       73      157.500 74      145.000 75      132.500                 
                  538-        TEMP    1       76      120.000 77      107.500 78      95.000                  
                  539-        TEMP    1       79      245.000 80      232.500 81      220.000                 
                  540-        TEMP    1       82      207.500 83      195.000 84      182.500                 
                  541-        TEMP    1       85      170.000 86      157.500 87      145.000                 
                  542-        TEMP    1       88      132.500 89      120.000 90      107.500                 
                  543-        TEMP    1       91      95.000  92      245.000 93      232.500                 
                  544-        TEMP    1       94      220.000 95      207.500 96      195.000                 
                  545-        TEMP    1       97      182.500 98      170.000 99      157.500                 
                  546-        TEMP    1       100     145.000 101     132.500 102     120.000                 
                  547-        TEMP    1       103     107.500 104     95.000  105     245.000                 
                  548-        TEMP    1       106     232.500 107     220.000 108     207.500                 
                  549-        TEMP    1       109     195.000 110     182.500 111     170.000                 
                  550-        TEMP    1       112     157.500 113     145.000 114     132.500                 
                  551-        TEMP    1       115     120.000 116     107.500 117     95.000                  
                  552-        TEMP    1       118     245.000 119     232.500 120     220.000                 
                  553-        TEMP    1       121     207.500 122     195.000 123     182.500                 
                  554-        TEMP    1       124     170.000 125     157.500 126     145.000                 
                  555-        TEMP    1       127     132.500 128     120.000 129     107.500                 
                  556-        TEMP    1       130     95.000  131     245.000 132     232.500                 
                  557-        TEMP    1       133     220.000 134     207.500 135     195.000                 
                  558-        TEMP    1       136     182.500 137     170.000 138     157.500                 
                  559-        TEMP    1       139     145.000 140     132.500 141     120.000                 
                  560-        TEMP    1       142     107.500 143     95.000  144     245.000                 
                  561-        TEMP    1       145     232.500 146     220.000 147     207.500                 
                  562-        TEMP    1       148     195.000 149     182.500 150     170.000                 
                  563-        TEMP    1       151     157.500 152     145.000 153     132.500                 
[...]
             8      G      1.110664E-02   0.0            0.0            0.0            0.0            0.0                           
             9      G      1.196643E-02   0.0            0.0            0.0            0.0            0.0                           
            10      G      1.264600E-02   0.0            0.0            0.0            0.0            0.0                           
            11      G      1.314135E-02   0.0            0.0            0.0            0.0            0.0                           
            12      G      1.344636E-02   0.0            0.0            0.0            0.0            0.0                           
            13      G      1.355276E-02   0.0            0.0            0.0            0.0            0.0                           
            79      G      0.0            8.291123E-03   0.0            0.0            0.0            0.0                           
            80      G      2.120345E-03   8.261741E-03   0.0            0.0            0.0            0.0                           
            81      G      4.043902E-03   8.174819E-03   0.0            0.0            0.0            0.0                           
            82      G      5.778396E-03   8.034296E-03   0.0            0.0            0.0            0.0                           
            83      G      7.330607E-03   7.847019E-03   0.0            0.0            0.0            0.0                           
            84      G      8.705972E-03   7.622530E-03   0.0            0.0            0.0            0.0                           
            85      G      9.908432E-03   7.372790E-03   0.0            0.0            0.0            0.0                           
            86      G      1.094021E-02   7.111868E-03   0.0            0.0            0.0            0.0                           
            87      G      1.180166E-02   6.855689E-03   0.0            0.0            0.0            0.0                           
            88      G      1.249108E-02   6.621791E-03   0.0            0.0            0.0            0.0                           
            89      G      1.300488E-02   6.429093E-03   0.0            0.0            0.0            0.0                           
            90      G      1.333713E-02   6.297742E-03   0.0            0.0            0.0            0.0                           
            91      G      1.347928E-02   6.248869E-03   0.0            0.0            0.0            0.0                           
           157      G      0.0            1.758395E-02   0.0            0.0            0.0            0.0                           
           158      G      2.144370E-03   1.749425E-02   0.0            0.0            0.0            0.0                           
           159      G      4.097088E-03   1.723065E-02   0.0            0.0            0.0            0.0                           
           160      G      5.870120E-03   1.680914E-02   0.0            0.0            0.0            0.0                           
           161      G      7.471865E-03   1.625414E-02   0.0            0.0            0.0            0.0                           
           162      G      8.906924E-03   1.559553E-02   0.0            0.0            0.0            0.0                           
           163      G      1.017677E-02   1.486582E-02   0.0            0.0            0.0            0.0                           
           164      G      1.128071E-02   1.409827E-02   0.0            0.0            0.0            0.0                           
           165      G      1.221691E-02   1.332590E-02   0.0            0.0            0.0            0.0                           
           166      G      1.298326E-02   1.258134E-02   0.0            0.0            0.0            0.0                           
           167      G      1.357814E-02   1.189757E-02   0.0            0.0            0.0            0.0                           
           168      G      1.400109E-02   1.131006E-02   0.0            0.0            0.0            0.0                           
           169      G      1.425288E-02   1.086025E-02   0.0            0.0            0.0            0.0                           
           235      G      0.0            2.829840E-02   0.0            0.0            0.0            0.0                           
           236      G      3.147562E-03   2.799658E-02   0.0            0.0            0.0            0.0                           
           237      G      6.012617E-03   2.722094E-02   0.0            0.0            0.0            0.0                           
           238      G      8.571308E-03   2.615281E-02   0.0            0.0            0.0            0.0                           
           239      G      1.082678E-02   2.488063E-02   0.0            0.0            0.0            0.0                           
           240      G      1.278716E-02   2.346832E-02   0.0            0.0            0.0            0.0                           
           241      G      1.446191E-02   2.196615E-02   0.0            0.0            0.0            0.0                           
           242      G      1.586233E-02   2.041638E-02   0.0            0.0            0.0            0.0                           
1     FREE RECTANGULAR PLATE WITH THERMAL LOADING (QDMEM2 ELEMENTS)         /    95 SUN SOLARIS NASTRAN    / MAY 17, 95 / PAGE    23
      NASTRAN DEMONSTRATION PROBLEM NO. D01-03-3A                                                                                   
0     LINEARLY VARYING THERMAL LOAD - TEMPERATURE DEPENDENT MATERIAL                                                                
 
                                             D I S P L A C E M E N T   V E C T O R
 
      POINT ID.   TYPE          T1             T2             T3             R1             R2             R3
           243      G      1.700226E-02   1.885547E-02   0.0            0.0            0.0            0.0                           
           244      G      1.789913E-02   1.731442E-02   0.0            0.0            0.0            0.0                           
           245      G      1.857386E-02   1.581857E-02   0.0            0.0            0.0            0.0                           
           246      G      1.905252E-02   1.438263E-02   0.0            0.0            0.0            0.0                           
           247      G      1.936602E-02   1.304365E-02   0.0            0.0            0.0            0.0                           
1     FREE RECTANGULAR PLATE WITH THERMAL LOADING (QDMEM2 ELEMENTS)         /    95 SUN SOLARIS NASTRAN    / MAY 17, 95 / PAGE    24
      NASTRAN DEMONSTRATION PROBLEM NO. D01-03-3A                                                                                   
0     LINEARLY VARYING THERMAL LOAD - TEMPERATURE DEPENDENT MATERIAL                                                                
 
                                                     L O A D   V E C T O R
 
      POINT ID.   TYPE          T1             T2             T3             R1             R2             R3
             1      G     -3.559223E+03  -3.559223E+03   0.0            0.0            0.0            0.0                           
             2      G      2.433977E+02  -6.875048E+03   0.0            0.0            0.0            0.0                           
             3      G      2.480757E+02  -6.383575E+03   0.0            0.0            0.0            0.0                           
             4      G      2.527524E+02  -5.882747E+03   0.0            0.0            0.0            0.0                           
             5      G      2.585908E+02  -5.371403E+03   0.0            0.0            0.0            0.0                           
             6      G      2.631287E+02  -4.849684E+03   0.0            0.0            0.0            0.0                           
             7      G      2.675220E+02  -4.319033E+03   0.0            0.0            0.0            0.0                           
             8      G      2.719160E+02  -3.779595E+03   0.0            0.0            0.0            0.0                           
             9      G      2.805852E+02  -3.227094E+03   0.0            0.0            0.0            0.0                           
            10      G      2.836848E+02  -2.662824E+03   0.0            0.0            0.0            0.0                           
            11      G      2.862157E+02  -2.092923E+03   0.0            0.0            0.0            0.0                           
            12      G      2.887468E+02  -1.517961E+03   0.0            0.0            0.0            0.0                           
            13      G      6.146071E+02  -6.146071E+02   0.0            0.0            0.0            0.0                           
            14      G     -7.118446E+03   0.0            0.0            0.0            0.0            0.0                           
            15      G      4.867954E+02  -2.441406E-04   0.0            0.0            0.0            0.0                           
            16      G      4.961514E+02   0.0            0.0            0.0            0.0            0.0                           
            17      G      5.055049E+02   0.0            0.0            0.0            0.0            0.0                           
            18      G      5.171816E+02   0.0            0.0            0.0            0.0            0.0                           
            19      G      5.262573E+02  -2.441406E-04   0.0            0.0            0.0            0.0                           
            20      G      5.350439E+02   0.0            0.0            0.0            0.0            0.0                           
            21      G      5.438320E+02   0.0            0.0            0.0            0.0            0.0                           
            22      G      5.611704E+02   0.0            0.0            0.0            0.0            0.0                           
            23      G      5.673696E+02   0.0            0.0            0.0            0.0            0.0                           
            24      G      5.724314E+02  -1.220703E-04   0.0            0.0            0.0            0.0                           
            25      G      5.774937E+02   0.0            0.0            0.0            0.0            0.0                           
            26      G      1.229214E+03   0.0            0.0            0.0            0.0            0.0                           
1     FREE RECTANGULAR PLATE WITH THERMAL LOADING (QDMEM2 ELEMENTS)         /    95 SUN SOLARIS NASTRAN    / MAY 17, 95 / PAGE    25
      NASTRAN DEMONSTRATION PROBLEM NO. D01-03-3A                                                                                   
0     LINEARLY VARYING THERMAL LOAD - TEMPERATURE DEPENDENT MATERIAL                                                                
 
                          S T R E S S E S   A C T I N G   I N   Q D M E M 2   E L E M E N T S   (CQDMEM2)
     ELEMENT        STRESSES IN MATERIAL COORD SYSTEM            PRINCIPAL           PRINCIPAL STRESSES            MAX
    ID.           NORMAL-X       NORMAL-Y       SHEAR-XY      STRESS ANGLE         MAJOR          MINOR          SHEAR
        1       -1.498871E+03  -7.429309E+03  -1.086743E+01       -0.1050      -1.498851E+03  -7.429328E+03   2.965239E+03          
        2       -1.455730E+03  -6.021971E+03  -3.215234E+01       -0.4034      -1.455504E+03  -6.022197E+03   2.283346E+03          
        3       -1.371328E+03  -4.654646E+03  -5.199854E+01       -0.9071      -1.370505E+03  -4.655470E+03   1.642482E+03          
        4       -1.249607E+03  -3.322734E+03  -6.933594E+01       -1.9134      -1.247291E+03  -3.325051E+03   1.038880E+03          
        5       -1.096639E+03  -2.016912E+03  -8.314844E+01       -5.1215      -1.089186E+03  -2.024364E+03   4.675890E+02          
        6       -9.203945E+02  -7.265059E+02  -9.250977E+01      -68.1704      -6.894492E+02  -9.574512E+02   1.340010E+02          
        7       -7.306475E+02   5.647627E+02  -9.658594E+01      -85.7593       5.719246E+02  -7.378093E+02   6.548669E+02          
        8       -5.386826E+02   1.876956E+03  -9.464258E+01      -87.7598       1.880658E+03  -5.423849E+02   1.211522E+03          
        9       -3.571982E+02   3.223775E+03  -8.608594E+01      -88.6237       3.225844E+03  -3.592665E+02   1.792555E+03          
       10       -1.998145E+02   4.631841E+03  -7.050195E+01      -89.1642       4.632869E+03  -2.008430E+02   2.416856E+03          
       11       -8.087012E+01   6.129444E+03  -4.766406E+01      -89.5603       6.129810E+03  -8.123584E+01   3.105523E+03          
       12       -1.484033E+01   7.745253E+03  -1.765820E+01      -89.8696       7.745294E+03  -1.488062E+01   3.880087E+03          
       15       -1.465977E+03  -5.980547E+03  -9.668311E+01       -1.2263      -1.463907E+03  -5.982616E+03   2.259355E+03          
       20       -7.363389E+02   5.670596E+02  -2.903594E+02      -77.9925       6.288170E+02  -7.980963E+02   7.134567E+02          
       28       -1.484842E+03  -5.897426E+03  -1.618750E+02       -2.0981      -1.478911E+03  -5.903356E+03   2.212222E+03          
       33       -7.466670E+02   5.717119E+02  -4.858418E+02      -71.8044       7.314077E+02  -9.063627E+02   8.188852E+02          
       41       -1.508990E+03  -5.772090E+03  -2.281289E+02       -3.0544      -1.496817E+03  -5.784263E+03   2.143723E+03          
       46       -7.594365E+02   5.787705E+02  -6.837803E+02      -67.1892       8.663566E+02  -1.047023E+03   9.566896E+02          
       54       -1.533277E+03  -5.603797E+03  -2.957871E+02       -4.1345      -1.511896E+03  -5.625178E+03   2.056641E+03          
       59       -7.711943E+02   5.882334E+02  -8.843877E+02      -63.7724       1.023935E+03  -1.206896E+03   1.115416E+03          
       67       -1.550566E+03  -5.391652E+03  -3.651221E+02       -5.3821      -1.516167E+03  -5.426052E+03   1.954942E+03          
       72       -7.770576E+02   5.998975E+02  -1.087007E+03      -61.1745       1.198116E+03  -1.375276E+03   1.286696E+03          
       80       -1.551434E+03  -5.134723E+03  -4.363340E+02       -6.8436      -1.499067E+03  -5.187089E+03   1.844011E+03          
       85       -7.704834E+02   6.131689E+02  -1.289928E+03      -59.1030       1.385084E+03  -1.542399E+03   1.463741E+03          
       93       -1.523863E+03  -4.832016E+03  -5.095449E+02       -8.5608      -1.447158E+03  -4.908721E+03   1.730781E+03          
       98       -7.430420E+02   6.267979E+02  -1.490000E+03      -57.3436       1.581760E+03  -1.698005E+03   1.639882E+03          
      106       -1.452711E+03  -4.482688E+03  -5.848027E+02      -10.5536      -1.343758E+03  -4.591640E+03   1.623941E+03          
      111       -6.842646E+02   6.385713E+02  -1.682326E+03      -55.7313       1.784830E+03  -1.830523E+03   1.807677E+03          
      118       -1.371869E+03  -5.396775E+03  -2.249980E+02       -3.1897      -1.359331E+03  -5.409314E+03   2.024992E+03          
      119       -1.319049E+03  -4.086172E+03  -6.620293E+02      -12.7855      -1.168816E+03  -4.236405E+03   1.533794E+03          
      120       -1.219176E+03  -2.924336E+03  -1.059721E+03      -25.5911      -7.116453E+02  -3.431866E+03   1.360111E+03          
      121       -1.082631E+03  -1.895205E+03  -1.393975E+03      -36.8754      -3.694189E+01  -2.940894E+03   1.451976E+03          
      122       -9.223438E+02  -9.751387E+02  -1.646320E+03      -44.5407       6.977906E+02  -2.595273E+03   1.646532E+03          
      123       -7.514844E+02  -1.378438E+02  -1.804215E+03      -49.8256       1.385453E+03  -2.274781E+03   1.830117E+03          
      124       -5.816436E+02   6.449814E+02  -1.859793E+03      -54.1256       1.989980E+03  -1.926642E+03   1.958311E+03          
      125       -4.220811E+02   1.400505E+03  -1.807607E+03      -58.3773       2.513539E+03  -1.535115E+03   2.024327E+03          
      126       -2.795576E+02   2.147345E+03  -1.642273E+03      -63.2301       2.975835E+03  -1.108048E+03   2.041941E+03          
      127       -1.593770E+02   2.910732E+03  -1.355799E+03      -69.2741       3.423746E+03  -6.723906E+02   2.048068E+03          
      128       -6.731152E+01   3.716298E+03  -9.345723E+02      -76.8551       3.934552E+03  -2.855662E+02   2.110059E+03          
      129       -1.314111E+01   4.595601E+03  -3.579399E+02      -85.5854       4.623235E+03  -4.077490E+01   2.332005E+03          
      132       -1.099078E+03  -3.642320E+03  -7.409375E+02      -15.1141      -8.989626E+02  -3.842436E+03   1.471737E+03          
      137       -4.211670E+02   6.408564E+02  -2.012548E+03      -52.3903       2.191268E+03  -1.971579E+03   2.081424E+03          
      145       -7.625000E+02  -3.152000E+03  -8.207539E+02      -17.2439      -5.077451E+02  -3.406755E+03   1.449505E+03          
      150       -1.884443E+02   6.194697E+02  -2.127244E+03      -50.3761       2.380772E+03  -1.949747E+03   2.165260E+03          
      158       -2.696934E+02  -2.617750E+03  -8.996797E+02      -18.7318       3.538818E+01  -2.922832E+03   1.479110E+03          
      163        1.286553E+02   5.730635E+02  -2.186064E+03      -47.9020       2.548188E+03  -1.846469E+03   2.197329E+03          
      171        4.329531E+02  -2.045812E+03  -9.736289E+02      -19.0762       7.696487E+02  -2.382508E+03   1.576078E+03          
1     FREE RECTANGULAR PLATE WITH THERMAL LOADING (QDMEM2 ELEMENTS)         /    95 SUN SOLARIS NASTRAN    / MAY 17, 95 / PAGE    26
      NASTRAN DEMONSTRATION PROBLEM NO. D01-03-3A                                                                                   
0     LINEARLY VARYING THERMAL LOAD - TEMPERATURE DEPENDENT MATERIAL                                                                
 
                          S T R E S S E S   A C T I N G   I N   Q D M E M 2   E L E M E N T S   (CQDMEM2)
     ELEMENT        STRESSES IN MATERIAL COORD SYSTEM            PRINCIPAL           PRINCIPAL STRESSES            MAX
    ID.           NORMAL-X       NORMAL-Y       SHEAR-XY      STRESS ANGLE         MAJOR          MINOR          SHEAR
      176        5.355361E+02   4.949932E+02  -2.165222E+03      -44.7318       2.680581E+03  -1.650052E+03   2.165317E+03          
      184        1.421537E+03  -1.449914E+03  -1.033297E+03      -17.8714       1.754712E+03  -1.783089E+03   1.768901E+03          
      189        1.024095E+03   3.835713E+02  -2.033112E+03      -40.5241       2.762015E+03  -1.354349E+03   2.058182E+03          
      197        2.809926E+03  -8.600078E+02  -1.056020E+03      -14.9602       3.092099E+03  -1.142181E+03   2.117140E+03          
      202        1.565021E+03   2.479229E+02  -1.748385E+03      -34.6803       2.774769E+03  -9.618259E+02   1.868298E+03          
      210        4.776887E+03  -3.425547E+02  -9.772305E+02      -10.4477       4.957084E+03  -5.227517E+02   2.739918E+03          
      215        2.102251E+03   1.132041E+02  -1.259026E+03      -25.8471       2.712167E+03  -4.967114E+02   1.604439E+03          
      223        7.536414E+03  -3.477344E+01  -5.651758E+02       -4.2457       7.578371E+03  -7.673022E+01   3.827551E+03          
      228        2.554821E+03   2.159473E+01  -5.040801E+02      -10.8507       2.651442E+03  -7.502563E+01   1.363234E+03          




                                        * * * END OF JOB * * *
1
 JOB TITLE =  FREE RECTANGULAR PLATE WITH THERMAL LOADING (QDMEM2 ELEMENTS)      
 DATE:  5/17/95
 END TIME: 14:32:11
 TOTAL WALL CLOCK TIME      3 SEC.
 
