     NASTRAN  FILES = OPTP                                                           






                                  ****
                                *      *
                               *        *
                               *  N A S T R A N
                               *        *
                                *      *
                                  ****


                             SUN COMPUTER SYSTEMS    
                                SOLARIS VERSION

                          SYSTEM RELEASE -  1995 ED.

                                DISTRIBUTED BY

         COMPUTER SOFTWARE MANAGEMENT AND INFORMATION CENTER (COSMIC)
                 UNIVERSITY OF GEORGIA, ATHENS, GEORGIA 30602
                 PHONE: (706)542-3265      FAX: (706)542-4807
1                                                                           /    95 SUN SOLARIS NASTRAN    / MAY 17, 95 / PAGE     2
                                                                                                                                    
0                                                                                                                                   
                                                                                                         
                                                                                                         
                         INSTALLATION CENTER USER INFORMATION GIVEN IN THIS SECTION                      
                                                                                                         
                                     *********************************************                       
                                     *                                           *                       
                                     *  PLEASE READ THE COMMENT IN DEMO PROBLEM  *                       
                                     *  D01002A ABOUT SYSTEM TIMING CONSTANTS    *                       
                                     *                                           *                       
                                     *********************************************                       
                                                                                                         
                         ===X=    TOP OF PAGE REQUEST IF 'X' IS REPLACED BY '='                          
                                                                                                         
1                                                                           /    95 SUN SOLARIS NASTRAN    / MAY 17, 95 / PAGE     3
                                                                                                                                    
0                                                                                                                                   
0*** USER INFORMATION MESSAGE 225, GINO TIME CONSTANTS ARE BEING COMPUTED
     (SEE NASINFO FILE FOR ELIMINATION OF THESE COMPUTATIONS)
1                                                                           /    95 SUN SOLARIS NASTRAN    / MAY 17, 95 / PAGE     4
                                                                                                                                    
0        N A S T R A N    E X E C U T I V E    C O N T R O L    D E C K    E C H O                                                  
0                                                                                                                                   
                                                                                                                                    
                                                                                                                                    
     ID    D01021B,RESTART                                                           
     $ INSERT THE RESTART DICTIONARY HERE                                            
0*** $   ... READFILE FROM-  RSCARDS                                                 
     RESTART  D01021A ,NASTRAN , 5/17/95,   52113,                                   
              1,   XVPS    ,   FLAGS = 0,   REEL =  1,   FILE =      5               
              2,   REENTER AT DMAP SEQUENCE NUMBER    12                             
              3,   GPL     ,   FLAGS = 0,   REEL =  1,   FILE =      6               
              4,   EQEXIN  ,   FLAGS = 0,   REEL =  1,   FILE =      7               
              5,   GPDT    ,   FLAGS = 0,   REEL =  1,   FILE =      8               
              6,   CSTM    ,   FLAGS = 0,   REEL =  1,   FILE =      9               
              7,   BGPDT   ,   FLAGS = 0,   REEL =  1,   FILE =     10               
              8,   SIL     ,   FLAGS = 0,   REEL =  1,   FILE =     11               
              9,   XVPS    ,   FLAGS = 0,   REEL =  1,   FILE =     12               
             10,   REENTER AT DMAP SEQUENCE NUMBER    13                             
             11,   XVPS    ,   FLAGS = 0,   REEL =  1,   FILE =     13               
             12,   MPTA    ,   FLAGS = 0,   REEL =  0,   FILE =      0               
             13,   REENTER AT DMAP SEQUENCE NUMBER    14                             
             14,   MPT     ,   FLAGS = 0,   REEL =  1,   FILE =     14               
             15,   XVPS    ,   FLAGS = 0,   REEL =  1,   FILE =     15               
             16,   REENTER AT DMAP SEQUENCE NUMBER    15                             
             17,   BGPDP   ,   FLAGS = 0,   REEL =  1,   FILE =     16               
             18,   SIP     ,   FLAGS = 0,   REEL =  1,   FILE =     17               
             19,   XVPS    ,   FLAGS = 0,   REEL =  1,   FILE =     18               
             20,   REENTER AT DMAP SEQUENCE NUMBER    16                             
             21,   ECT     ,   FLAGS = 0,   REEL =  1,   FILE =     19               
             22,   XVPS    ,   FLAGS = 0,   REEL =  1,   FILE =     20               
             23,   REENTER AT DMAP SEQUENCE NUMBER    18                             
             24,   XVPS    ,   FLAGS = 0,   REEL =  1,   FILE =     21               
             25,   PLTSETX ,   FLAGS = 0,   REEL =  0,   FILE =      0               
             26,   PLTPAR  ,   FLAGS = 0,   REEL =  0,   FILE =      0               
             27,   GPSETS  ,   FLAGS = 0,   REEL =  0,   FILE =      0               
             28,   ELSETS  ,   FLAGS = 0,   REEL =  0,   FILE =      0               
             29,   REENTER AT DMAP SEQUENCE NUMBER    20                             
             30,   PLTSETX ,   FLAGS = 0,   REEL =  1,   FILE =     22               
             31,   PLTPAR  ,   FLAGS = 0,   REEL =  1,   FILE =     23               
             32,   GPSETS  ,   FLAGS = 0,   REEL =  1,   FILE =     24               
             33,   ELSETS  ,   FLAGS = 0,   REEL =  1,   FILE =     25               
             34,   XVPS    ,   FLAGS = 0,   REEL =  1,   FILE =     26               
             35,   REENTER AT DMAP SEQUENCE NUMBER    25                             
             36,   PLOTX1  ,   FLAGS = 0,   REEL =  1,   FILE =     27               
             37,   XVPS    ,   FLAGS = 0,   REEL =  1,   FILE =     28               
             38,   REENTER AT DMAP SEQUENCE NUMBER    28                             
             39,   SLT     ,   FLAGS = 0,   REEL =  1,   FILE =     29               
             40,   XVPS    ,   FLAGS = 0,   REEL =  1,   FILE =     30               
             41,   GPTT    ,   FLAGS = 0,   REEL =  0,   FILE =      0               
             42,   REENTER AT DMAP SEQUENCE NUMBER    30                             
1                                                                           /    95 SUN SOLARIS NASTRAN    / MAY 17, 95 / PAGE     5
                                                                                                                                    
0        N A S T R A N    E X E C U T I V E    C O N T R O L    D E C K    E C H O                                                  
0                                                                                                                                   
                                                                                                                                    
                                                                                                                                    
             43,   EST     ,   FLAGS = 0,   REEL =  1,   FILE =     31               
             44,   GPECT   ,   FLAGS = 0,   REEL =  1,   FILE =     32               
             45,   XVPS    ,   FLAGS = 0,   REEL =  1,   FILE =     33               
             46,   GEI     ,   FLAGS = 0,   REEL =  0,   FILE =      0               
             47,   MPTX    ,   FLAGS = 0,   REEL =  0,   FILE =      0               
             48,   PCOMPS  ,   FLAGS = 0,   REEL =  0,   FILE =      0               
             49,   EPTX    ,   FLAGS = 0,   REEL =  0,   FILE =      0               
             50,   REENTER AT DMAP SEQUENCE NUMBER    31                             
             51,   MPT     ,   FLAGS = 0,   REEL =  1,   FILE =     34               
             52,   EPT     ,   FLAGS = 0,   REEL =  1,   FILE =     35               
             53,   XVPS    ,   FLAGS = 0,   REEL =  1,   FILE =     36               
             54,   REENTER AT DMAP SEQUENCE NUMBER    34                             
             55,   XVPS    ,   FLAGS = 0,   REEL =  1,   FILE =     37               
             56,   KGGX    ,   FLAGS = 0,   REEL =  0,   FILE =      0               
             57,   REENTER AT DMAP SEQUENCE NUMBER    35                             
             58,   XVPS    ,   FLAGS = 0,   REEL =  1,   FILE =     38               
             59,   OPTP1   ,   FLAGS = 0,   REEL =  0,   FILE =      0               
             60,   REENTER AT DMAP SEQUENCE NUMBER    39                             
             61,   XVPS    ,   FLAGS = 0,   REEL =  1,   FILE =     39               
             62,   OPTP2   ,   FLAGS = 0,   REEL =  0,   FILE =      0               
             63,   EST1    ,   FLAGS = 0,   REEL =  0,   FILE =      0               
             64,   REENTER AT DMAP SEQUENCE NUMBER    40                             
             65,   KELM    ,   FLAGS = 0,   REEL =  1,   FILE =     40               
             66,   KDICT   ,   FLAGS = 0,   REEL =  1,   FILE =     41               
             67,   XVPS    ,   FLAGS = 0,   REEL =  1,   FILE =     42               
             68,   MELM    ,   FLAGS = 0,   REEL =  0,   FILE =      0               
             69,   MDICT   ,   FLAGS = 0,   REEL =  0,   FILE =      0               
             70,   REENTER AT DMAP SEQUENCE NUMBER    42                             
             71,   KGGX    ,   FLAGS = 0,   REEL =  1,   FILE =     43               
             72,   XVPS    ,   FLAGS = 0,   REEL =  1,   FILE =     44               
             73,   REENTER AT DMAP SEQUENCE NUMBER    44                             
             74,   XVPS    ,   FLAGS = 0,   REEL =  1,   FILE =     45               
             75,   MGG     ,   FLAGS = 0,   REEL =  0,   FILE =      0               
             76,   REENTER AT DMAP SEQUENCE NUMBER    54                             
             77,   KGGX    ,   FLAGS = 4,   REEL =  1,   FILE =     43               
             78,   KGG     ,   FLAGS = 4,   REEL =  1,   FILE =     43               
             79,   XVPS    ,   FLAGS = 0,   REEL =  1,   FILE =     46               
             80,   REENTER AT DMAP SEQUENCE NUMBER    58                             
             81,   GPST    ,   FLAGS = 0,   REEL =  1,   FILE =     47               
             82,   XVPS    ,   FLAGS = 0,   REEL =  1,   FILE =     48               
             83,   REENTER AT DMAP SEQUENCE NUMBER    61                             
             84,   YS      ,   FLAGS = 0,   REEL =  1,   FILE =     49               
             85,   USET    ,   FLAGS = 0,   REEL =  1,   FILE =     50               
             86,   XVPS    ,   FLAGS = 0,   REEL =  1,   FILE =     51               
             87,   RG      ,   FLAGS = 0,   REEL =  0,   FILE =      0               
             88,   ASET    ,   FLAGS = 0,   REEL =  0,   FILE =      0               
             89,   OGPST   ,   FLAGS = 0,   REEL =  0,   FILE =      0               
1                                                                           /    95 SUN SOLARIS NASTRAN    / MAY 17, 95 / PAGE     6
                                                                                                                                    
0        N A S T R A N    E X E C U T I V E    C O N T R O L    D E C K    E C H O                                                  
0                                                                                                                                   
                                                                                                                                    
                                                                                                                                    
             90,   REENTER AT DMAP SEQUENCE NUMBER    65                             
             91,   XVPS    ,   FLAGS = 0,   REEL =  1,   FILE =     52               
             92,   KRR     ,   FLAGS = 0,   REEL =  0,   FILE =      0               
             93,   KLR     ,   FLAGS = 0,   REEL =  0,   FILE =      0               
             94,   QR      ,   FLAGS = 0,   REEL =  0,   FILE =      0               
             95,   DM      ,   FLAGS = 0,   REEL =  0,   FILE =      0               
             96,   GM      ,   FLAGS = 0,   REEL =  0,   FILE =      0               
             97,   GO      ,   FLAGS = 0,   REEL =  0,   FILE =      0               
             98,   KOO     ,   FLAGS = 0,   REEL =  0,   FILE =      0               
             99,   LOO     ,   FLAGS = 0,   REEL =  0,   FILE =      0               
            100,   PO      ,   FLAGS = 0,   REEL =  0,   FILE =      0               
            101,   UOOV    ,   FLAGS = 0,   REEL =  0,   FILE =      0               
            102,   RUOV    ,   FLAGS = 0,   REEL =  0,   FILE =      0               
            103,   PS      ,   FLAGS = 0,   REEL =  0,   FILE =      0               
            104,   KFS     ,   FLAGS = 0,   REEL =  0,   FILE =      0               
            105,   KSS     ,   FLAGS = 0,   REEL =  0,   FILE =      0               
            106,   QG      ,   FLAGS = 0,   REEL =  0,   FILE =      0               
            107,   REENTER AT DMAP SEQUENCE NUMBER    66                             
            108,   KNN     ,   FLAGS = 4,   REEL =  1,   FILE =     43               
            109,   XVPS    ,   FLAGS = 0,   REEL =  1,   FILE =     53               
            110,   REENTER AT DMAP SEQUENCE NUMBER    71                             
            111,   XVPS    ,   FLAGS = 0,   REEL =  1,   FILE =     54               
            112,   KFF     ,   FLAGS = 0,   REEL =  0,   FILE =      0               
            113,   REENTER AT DMAP SEQUENCE NUMBER    73                             
            114,   KFF     ,   FLAGS = 0,   REEL =  1,   FILE =     55               
            115,   KFS     ,   FLAGS = 0,   REEL =  1,   FILE =     56               
            116,   KSS     ,   FLAGS = 0,   REEL =  1,   FILE =     57               
            117,   XVPS    ,   FLAGS = 0,   REEL =  1,   FILE =     58               
            118,   REENTER AT DMAP SEQUENCE NUMBER    75                             
            119,   KFF     ,   FLAGS = 4,   REEL =  1,   FILE =     55               
            120,   KAA     ,   FLAGS = 4,   REEL =  1,   FILE =     55               
            121,   XVPS    ,   FLAGS = 0,   REEL =  1,   FILE =     59               
            122,   REENTER AT DMAP SEQUENCE NUMBER    79                             
            123,   KLL     ,   FLAGS = 4,   REEL =  1,   FILE =     55               
            124,   XVPS    ,   FLAGS = 0,   REEL =  1,   FILE =     60               
            125,   REENTER AT DMAP SEQUENCE NUMBER    83                             
            126,   LLL     ,   FLAGS = 0,   REEL =  1,   FILE =     61               
            127,   XVPS    ,   FLAGS = 0,   REEL =  1,   FILE =     62               
            128,   REENTER AT DMAP SEQUENCE NUMBER    87                             
            129,   PG      ,   FLAGS = 0,   REEL =  1,   FILE =     63               
            130,   XVPS    ,   FLAGS = 0,   REEL =  1,   FILE =     64               
            131,   REENTER AT DMAP SEQUENCE NUMBER    88                             
            132,   XVPS    ,   FLAGS = 0,   REEL =  1,   FILE =     65               
            133,   PL      ,   FLAGS = 0,   REEL =  0,   FILE =      0               
            134,   REENTER AT DMAP SEQUENCE NUMBER    90                             
            135,   PS      ,   FLAGS = 0,   REEL =  1,   FILE =     66               
            136,   PL      ,   FLAGS = 0,   REEL =  1,   FILE =     67               
1                                                                           /    95 SUN SOLARIS NASTRAN    / MAY 17, 95 / PAGE     7
                                                                                                                                    
0        N A S T R A N    E X E C U T I V E    C O N T R O L    D E C K    E C H O                                                  
0                                                                                                                                   
                                                                                                                                    
                                                                                                                                    
            137,   XVPS    ,   FLAGS = 0,   REEL =  1,   FILE =     68               
            138,   REENTER AT DMAP SEQUENCE NUMBER    92                             
            139,   ULV     ,   FLAGS = 0,   REEL =  1,   FILE =     69               
            140,   RULV    ,   FLAGS = 0,   REEL =  1,   FILE =     70               
            141,   XVPS    ,   FLAGS = 0,   REEL =  1,   FILE =     71               
            142,   REENTER AT DMAP SEQUENCE NUMBER    97                             
            143,   UGV     ,   FLAGS = 0,   REEL =  1,   FILE =     72               
            144,   PGG     ,   FLAGS = 0,   REEL =  1,   FILE =     73               
            145,   QG      ,   FLAGS = 0,   REEL =  1,   FILE =     74               
            146,   XVPS    ,   FLAGS = 0,   REEL =  1,   FILE =     75               
            147,   REENTER AT DMAP SEQUENCE NUMBER   104                             
            148,   XVPS    ,   FLAGS = 0,   REEL =  1,   FILE =     76               
            149,   ONRGY1  ,   FLAGS = 0,   REEL =  0,   FILE =      0               
            150,   OGPFB1  ,   FLAGS = 0,   REEL =  0,   FILE =      0               
            151,   REENTER AT DMAP SEQUENCE NUMBER   105                             
            152,   XVPS    ,   FLAGS = 0,   REEL =  1,   FILE =     77               
            153,   KDICT   ,   FLAGS = 0,   REEL =  0,   FILE =      0               
            154,   KELM    ,   FLAGS = 0,   REEL =  0,   FILE =      0               
            155,   REENTER AT DMAP SEQUENCE NUMBER   111                             
            156,   OQG1    ,   FLAGS = 0,   REEL =  1,   FILE =     78               
            157,   OUGV1   ,   FLAGS = 0,   REEL =  1,   FILE =     79               
            158,   OES1    ,   FLAGS = 0,   REEL =  1,   FILE =     80               
            159,   PUGV1   ,   FLAGS = 0,   REEL =  1,   FILE =     81               
            160,   XVPS    ,   FLAGS = 0,   REEL =  1,   FILE =     82               
            161,   OPG1    ,   FLAGS = 0,   REEL =  0,   FILE =      0               
            162,   OEF1    ,   FLAGS = 0,   REEL =  0,   FILE =      0               
            163,   OES1L   ,   FLAGS = 0,   REEL =  0,   FILE =      0               
            164,   OEF1L   ,   FLAGS = 0,   REEL =  0,   FILE =      0               
            165,   REENTER AT DMAP SEQUENCE NUMBER   115                             
            166,   XVPS    ,   FLAGS = 0,   REEL =  1,   FILE =     83               
            167,   OES1M   ,   FLAGS = 0,   REEL =  0,   FILE =      0               
            168,   REENTER AT DMAP SEQUENCE NUMBER   121                             
            169,   XVPS    ,   FLAGS = 0,   REEL =  1,   FILE =     84               
            170,   OES1A   ,   FLAGS = 0,   REEL =  0,   FILE =      0               
            171,   REENTER AT DMAP SEQUENCE NUMBER   141                             
            172,   XVPS    ,   FLAGS = 0,   REEL =  1,   FILE =     85               
            173,   OUGV2   ,   FLAGS = 0,   REEL =  0,   FILE =      0               
            174,   REENTER AT DMAP SEQUENCE NUMBER   149                             
            175,   XVPS    ,   FLAGS = 0,   REEL =  1,   FILE =     86               
            176,   OESF1X  ,   FLAGS = 0,   REEL =  0,   FILE =      0               
            177,   OESF1Y  ,   FLAGS = 0,   REEL =  0,   FILE =      0               
            178,   REENTER AT DMAP SEQUENCE NUMBER   154                             
            179,   PLOTX2  ,   FLAGS = 0,   REEL =  1,   FILE =     87               
            180,   XVPS    ,   FLAGS = 0,   REEL =  1,   FILE =     88               
            181,   REENTER AT DMAP SEQUENCE NUMBER   172                             
            182,   XVPS    ,   FLAGS = 0,   REEL =  1,   FILE =     89               
            183,   DUMMY   ,   FLAGS = 0,   REEL =  0,   FILE =      0               
1                                                                           /    95 SUN SOLARIS NASTRAN    / MAY 17, 95 / PAGE     8
                                                                                                                                    
0        N A S T R A N    E X E C U T I V E    C O N T R O L    D E C K    E C H O                                                  
0                                                                                                                                   
                                                                                                                                    
                                                                                                                                    
     $ END OF CHECKPOINT DICTIONARY                                                  
0*** $   END READFILE                                                                
     TIME     5                                                                      
     APP      DISPLACEMENT                                                           
     SOL      1,1                                                                    
     CEND                                                                            


0*** USER INFORMATION MESSAGE, TURN DIAG 48 ON FOR NASTRAN RELEASE NEWS, DIAG DEFINITION, NEW DMAP
         MODULES AND NEW BULKDATA CARDS INFORMATION
1     SPHERICAL SHELL         RESTART WITH CLAMPED BOUNDARY                 /    95 SUN SOLARIS NASTRAN    / MAY 17, 95 / PAGE     9
      NASTRAN DEMONSTRATION PROBLEM NO. D01-02-1B                                                                                   
0                                                                                                                                   
0                                        C A S E    C O N T R O L   D E C K   E C H O                                               
                 CARD                                                                                                               
                 COUNT                                                                                                              
                  1      TITLE    = SPHERICAL SHELL         RESTART WITH CLAMPED BOUNDARY                
                  2      SUBTITLE = NASTRAN DEMONSTRATION PROBLEM NO. D01-02-1B                          
                  3        LOAD   = 1                                                                    
                  4        SPC    = 1                                                                    
                  5      OUTPUT                                                                          
                  6        DISPLACEMENT = ALL                                                            
                  7        SPCFORCE     = ALL                                                            
                  8        ELFORCE      = ALL                                                            
                  9        STRESSES     = ALL                                                            
                 10      BEGIN BULK                                                                      
1     SPHERICAL SHELL         RESTART WITH CLAMPED BOUNDARY                 /    95 SUN SOLARIS NASTRAN    / MAY 17, 95 / PAGE    10
      NASTRAN DEMONSTRATION PROBLEM NO. D01-02-1B                                                                                   
0                                                                                                                                   
0                                             I N P U T   B U L K   D A T A   D E C K   E C H O                                     
                                                                                                                                    
                                  ---1--- +++2+++ ---3--- +++4+++ ---5--- +++6+++ ---7--- +++8+++ ---9--- +++10+++                  
                              ENDDATA                                                                                       


                        TOTAL COUNT=      0
1     SPHERICAL SHELL         RESTART WITH CLAMPED BOUNDARY                 /    95 SUN SOLARIS NASTRAN    / MAY 17, 95 / PAGE    11
      NASTRAN DEMONSTRATION PROBLEM NO. D01-02-1B                                                                                   
0                                                                                                                                   
0                                                 S O R T E D   B U L K    D A T A    E C H O                                       
                     CARD                                                                                                           
                     COUNT        ---1--- +++2+++ ---3--- +++4+++ ---5--- +++6+++ ---7--- +++8+++ ---9--- +++10+++                  
                    1-        CORD2S  2               .0      .0      .0      .0      .0      1.      +COR1   
                    2-        +COR1   1.000   .000    .000                                                    
                    3-        CTRIA2  1       31      1       6       26      .0                              
                    4-        CTRIA2  2       31      6       11      26      .0                              
                    5-        CTRIA2  3       31      2       7       1       .0                              
                    6-        CTRIA2  4       31      6       1       7       .0                              
                    7-        CTRIA2  5       31      7       12      6       .0                              
                    8-        CTRIA2  6       31      11      6       12      .0                              
                    9-        CTRIA2  7       31      12      16      11      .0                              
                   10-        CTRIA2  8       31      3       8       2       .0                              
                   11-        CTRIA2  9       31      7       2       8       .0                              
                   12-        CTRIA2  10      31      8       13      7       .0                              
                   13-        CTRIA2  11      31      12      7       13      .0                              
                   14-        CTRIA2  12      31      13      17      12      .0                              
                   15-        CTRIA2  13      31      16      12      17      .0                              
                   16-        CTRIA2  14      31      17      20      16      .0                              
                   17-        CTRIA2  15      31      4       9       3       .0                              
                   18-        CTRIA2  16      31      8       3       9       .0                              
                   19-        CTRIA2  17      31      9       14      8       .0                              
                   20-        CTRIA2  18      31      13      8       14      .0                              
                   21-        CTRIA2  19      31      14      18      13      .0                              
                   22-        CTRIA2  20      31      17      13      18      .0                              
                   23-        CTRIA2  21      31      18      21      17      .0                              
                   24-        CTRIA2  22      31      20      17      21      .0                              
                   25-        CTRIA2  23      31      21      23      20      .0                              
                   26-        CTRIA2  24      31      5       10      4       .0                              
                   27-        CTRIA2  25      31      9       4       10      .0                              
                   28-        CTRIA2  26      31      10      15      9       .0                              
                   29-        CTRIA2  27      31      14      9       15      .0                              
                   30-        CTRIA2  28      31      15      19      14      .0                              
                   31-        CTRIA2  29      31      18      14      19      .0                              
                   32-        CTRIA2  30      31      19      22      18      .0                              
                   33-        CTRIA2  31      31      21      18      22      .0                              
                   34-        CTRIA2  32      31      22      24      21      .0                              
                   35-        CTRIA2  33      31      23      21      24      .0                              
                   36-        CTRIA2  34      31      24      25      23      .0                              
                   37-        GRDSET          2                               2                               
                   38-        GRID    1               90.     7.      .0                                      
                   39-        GRID    2               90.     14.0    .0                                      
                   40-        GRID    3               90.     21.0    .0                                      
                   41-        GRID    4               90.     28.0    .0                                      
                   42-        GRID    5               90.     35.0    .0                                      
                   43-        GRID    6               90.     7.0     45.0                                    
                   44-        GRID    7               90.     14.0    30.0                                    
                   45-        GRID    8               90.     21.0    22.5                                    
                   46-        GRID    9               90.     28.0    18.0                                    
                   47-        GRID    10              90.     35.0    15.0                                    
1     SPHERICAL SHELL         RESTART WITH CLAMPED BOUNDARY                 /    95 SUN SOLARIS NASTRAN    / MAY 17, 95 / PAGE    12
      NASTRAN DEMONSTRATION PROBLEM NO. D01-02-1B                                                                                   

                                                                                                                                    

                                                  S O R T E D   B U L K    D A T A    E C H O                                       
                     CARD                                                                                                           
                     COUNT        ---1--- +++2+++ ---3--- +++4+++ ---5--- +++6+++ ---7--- +++8+++ ---9--- +++10+++                  
                   48-        GRID    11              90.     7.0     90.0                                    
                   49-        GRID    12              90.     14.0    60.0                                    
                   50-        GRID    13              90.     21.0    45.0                                    
                   51-        GRID    14              90.     28.0    36.0                                    
                   52-        GRID    15              90.     35.0    30.0                                    
                   53-        GRID    16              90.     14.0    90.0                                    
                   54-        GRID    17              90.     21.0    67.5                                    
                   55-        GRID    18              90.     28.0    54.0                                    
                   56-        GRID    19              90.     35.0    45.0                                    
                   57-        GRID    20              90.     21.0    90.0                                    
                   58-        GRID    21              90.     28.0    72.0                                    
                   59-        GRID    22              90.     35.0    60.0                                    
                   60-        GRID    23              90.     28.0    90.0                                    
                   61-        GRID    24              90.     35.0    75.0                                    
                   62-        GRID    25              90.     35.0    90.0                                    
                   63-        GRID    26      0       .0      .0      90.0    0                               
                   64-        MAT1    1       3.+6            .1666                                           
                   65-        PLOAD2  1       -1.0    1       2       3       4       5       6               
                   66-        PLOAD2  1       -1.0    7       8       9       10      11      12              
                   67-        PLOAD2  1       -1.0    13      14      15      16      17      18              
                   68-        PLOAD2  1       -1.0    19      20      21      22      23      24              
                   69-        PLOAD2  1       -1.0    25      26      27      28      29      30              
                   70-        PLOAD2  1       -1.0    31      32      33      34                              
                   71-        PLOTEL  50      26      1               51      1       2                       
                   72-        PLOTEL  52      2       3               53      3       4                       
                   73-        PLOTEL  54      4       5               55      5       10                      
                   74-        PLOTEL  56      10      15              57      15      19                      
                   75-        PLOTEL  58      19      22              59      22      24                      
                   76-        PLOTEL  60      24      25              61      25      23                      
                   77-        PLOTEL  62      23      20              63      20      16                      
                   78-        PLOTEL  64      16      11              65      11      26                      
                   79-        PLOTEL  66      3       8               67      8       13                      
                   80-        PLOTEL  68      13      17              69      17      20                      
                   81-        PTRIA2  31      1       3.                                                      
                   82-        SPC     1       26      12456   .0                                              
                   83-        SPC1    1       345     1       2       3       4       11      16      +SPC1-2 
                   84-        +SPC1-2 20      23                                                              
                   85-        SPC1    1       123456  5       10      15      19      22      24      +SPC1-1 
                   86-        +SPC1-1 25                                                                      
                   87-        SPC1    2       2       10      15      19      22      24                      
                   88-        SPC1    2       345     1       2       3       4       11      16      +SPC2-1 
                   89-        +SPC2-1 20      23                                                              
                   90-        SPC1    2       2345    5       25                                              
                   91-        SPC1    2       12456   26                                                      
                              ENDDATA
1     SPHERICAL SHELL         RESTART WITH CLAMPED BOUNDARY                 /    95 SUN SOLARIS NASTRAN    / MAY 17, 95 / PAGE    13
      NASTRAN DEMONSTRATION PROBLEM NO. D01-02-1B                                                                                   
0                                                                                                                                   
0*** USER INFORMATION MESSAGE 4144, THIS IS A MODIFIED RESTART.
0*** USER INFORMATION MESSAGE. CASE CONTROL AND BULK DATA DECK CHANGES AFFECTING THIS RESTART ARE INDICATED BELOW.

0*** USER INFORMATION MESSAGE. EFFECTIVE CASE CONTROL DECK CHANGES
 -----------------------------------


 MASK WORD - BIT POSITION ---- FLAG NAME ---- PACKED BIT POSITION

    17
                   2           SPC$                   10
                  15           PLOT$                  18
                  17           POUT$                  19
                  31           NOLOOP$                31
0*** USER INFORMATION MESSAGE. EFFECTIVE BULK DATA DECK CHANGES
 --------------------------------


 NONE

1     SPHERICAL SHELL         RESTART WITH CLAMPED BOUNDARY                 /    95 SUN SOLARIS NASTRAN    / MAY 17, 95 / PAGE    14
      NASTRAN DEMONSTRATION PROBLEM NO. D01-02-1B                                                                                   
0                                                                                                                                   
0         COSMIC / NASTRAN DMAP COMPILER - SOURCE LISTING                                                                           
                                                                                                                                    
                                                                                                                                    
0  OPTIONS IN EFFECT GO      ERR=2   LIST    NODECK  NOREF   NOOSCAR 
   -----------------


       1  BEGIN    DISP 01 - STATIC ANALYSIS - APR. 1995 $                        
+  +

       2  FILE     OPTP2=SAVE/EST1=SAVE $                                         
+  +

       4  SETVAL   //V,Y,INTERACT/0/V,Y,SYS21/0 $                                 
+  *

       5  PARAM    //*MPY*/CARDNO/0/0 $                                           
+  *

       6  COMPOFF  1,INTERACT $                                                   

       7  PRECHK   ALL $                                                          

       8  COMPON   1,INTERACT $                                                   

      10  COMPOFF  LBLINT02,SYS21 $                                               

      11  GP1      GEOM1,GEOM2,/GPL,EQEXIN,GPDT,CSTM,BGPDT,SIL/S,N,LUSET/         
                   NOGPDT/ALWAYS=-1 $                                             

      12  ANISOP   GEOM1,EPT,BGPDT,EQEXIN,MPT/MPTA/S,N,ISOP $                     

      13  EQUIV    MPTA,MPT/ISOP $                                                

      14  PLTTRAN  BGPDT,SIL/BGPDP,SIP/LUSET/S,N,LUSEP $                          

      15  GP2      GEOM2,EQEXIN/ECT $                                             

      16  PARAML   PCDB//*PRES*////JUMPPLOT $                                     
+  *

      17  PURGE    PLTSETX,PLTPAR,GPSETS,ELSETS/JUMPPLOT $                        
+  *

      18  COND     P1,JUMPPLOT $                                                  
+  *

      19  PLTSET   PCDB,EQEXIN,ECT,EPT/PLTSETX,PLTPAR,GPSETS,ELSETS/S,N,NSIL/     
+  *
                   S,N,JUMPPLOT $                                                 

      20  PRTMSG   PLTSETX// $                                                    
+  *

      21  PARAM    //*MPY*/PLTFLG/1/1 $                                           
+  *

      22  PARAM    //*MPY*/PFILE/0/0 $                                            
+  *
1     SPHERICAL SHELL         RESTART WITH CLAMPED BOUNDARY                 /    95 SUN SOLARIS NASTRAN    / MAY 17, 95 / PAGE    15
      NASTRAN DEMONSTRATION PROBLEM NO. D01-02-1B                                                                                   

                                                                                                                                    

          COSMIC / NASTRAN DMAP COMPILER - SOURCE LISTING                                                                           
                                                                                                                                    
                                                                                                                                    

      23  COND     P1,JUMPPLOT $                                                  
+  *

      24  PLOT     PLTPAR,GPSETS,ELSETS,CASECC,BGPDT,EQEXIN,SIL,,ECT,,,,/PLOTX1/  
+  *
                   NSIL/LUSET/S,N,JUMPPLOT/S,N,PLTFLG/S,N,PFILE  $                

      25  PRTMSG   PLOTX1// $                                                     
+  *

      26  LABEL    P1 $                                                           
+  +

      27  GP3      GEOM3,EQEXIN,GEOM2/SLT,GPTT/S,N,NOGRAV/NEVER=1 $               

      28  PARAM    //*AND*/NOMGG/NOGRAV/V,Y,GRDPNT=-1 $                           

      29  TA1      ECT,EPT,BGPDT,SIL,GPTT,CSTM,MPT,EQEXIN/EST,GEI,GPECT,,,MPTX,   
                   PCOMPS,EPTX/LUSET/S,N,NOSIMP/1/S,N,NOGENL/GENEL/S,N,COMPS $    

      30  EQUIV    MPTX,MPT/COMPS/EPTX,EPT/COMPS $                                
+  *

      31  PARAM    //*AND*/NOELMT/NOGENL/NOSIMP $                                 

      32  COND     ERROR4,NOELMT $                                                

      33  PURGE    KGGX/NOSIMP $                                                  

      34  OPTPR1   MPT,EPT,ECT,DIT,EST/OPTP1/S,N,PRINT/S,N,TSTART/S,N,COUNT $     

      35  LABEL    LOOPTOP $                                                      
+  +

      36  COND     LBL1,NOSIMP $                                                  

      37  PARAM    //*ADD*/NOKGGX/1/0 $                                           

      38  EQUIV    OPTP1,OPTP2/NEVER/EST,EST1/NEVER $                             

      39  EMG      EST,CSTM,MPT,DIT,GEOM2,/KELM,KDICT,MELM,MDICT,,,/S,N,NOKGGX/   
                   S,N,NOMGG////C,Y,COUPMASS/C,Y,CPBAR/                           
                   C,Y,CPROD/C,Y,CPQUAD1/C,Y,CPQUAD2/C,Y,CPTRIA1/C,Y,CPTRIA2/     
                   C,Y,CPTUBE/C,Y,CPQDPLT/C,Y,CPTRPLT/C,Y,CPTRBSC/                
                   C,Y,VOLUME/C,Y,SURFACE $                                       

      40  COND     JMPKGG,NOKGGX $                                                

      41  EMA      GPECT,KDICT,KELM/KGGX $                                        

      42  LABEL    JMPKGG $                                                       
+  +
1     SPHERICAL SHELL         RESTART WITH CLAMPED BOUNDARY                 /    95 SUN SOLARIS NASTRAN    / MAY 17, 95 / PAGE    16
      NASTRAN DEMONSTRATION PROBLEM NO. D01-02-1B                                                                                   

                                                                                                                                    

          COSMIC / NASTRAN DMAP COMPILER - SOURCE LISTING                                                                           
                                                                                                                                    
                                                                                                                                    

      43  PURGE    MGG/NOMGG $                                                    

      44  COND     JMPMGG,NOMGG $                                                 

      45  EMA      GPECT,MDICT,MELM/MGG/-1/C,Y,WTMASS=1.0 $                       

      46  PURGE    MDICT,MELM/ALWAYS $                                            

      47  LABEL    JMPMGG $                                                       
+  +

      48  COND     LBL1,GRDPNT $                                                  

      49  COND     ERROR2,NOMGG $                                                 

      50  GPWG     BGPDP,CSTM,EQEXIN,MGG/OGPWG/V,Y,GRDPNT/C,Y,WTMASS $            

      51  OFP      OGPWG,,,,,//S,N,CARDNO $                                       

      52  LABEL    LBL1 $                                                         
+  +

      53  EQUIV    KGGX,KGG/NOGENL $                                              

      54  COND     LBL11A,NOGENL $                                                

      55  SMA3     GEI,KGGX/KGG/LUSET/NOGENL/NOSIMP $                             

      56  LABEL    LBL11A $                                                       
+  +

      57  GPSTGEN  KGG,SIL/GPST $                                                 

      58  PARAM    //*MPY*/NSKIP/0/0 $                                            
+  *

      60  GP4      CASECC,GEOM4,EQEXIN,GPDT,BGPDT,CSTM,GPST/RG,YS,USET,           
+  *
                   ASET,OGPST/LUSET/S,N,MPCF1/S,N,MPCF2/S,N,SINGLE/S,N,OMIT/      
                   S,N,REACT/S,N,NSKIP/S,N,REPEAT/S,N,NOSET/S,N,NOL/S,N,NOA/      
                   C,Y,ASETOUT/C,Y,AUTOSPC $                                      

      61  OFP      OGPST,,,,,//S,N,CARDNO $                                       
+  *

      62  COND     ERROR3,NOL $                                                   
+  *

      63  PARAM    //*AND*/NOSR/SINGLE/REACT $                                    
+  *

      64  PURGE    KRR,KLR,QR,DM/REACT/GM/MPCF1/GO,KOO,LOO,PO,UOOV,RUOV/OMIT/PS,  
+  *
                   KFS,KSS/SINGLE/QG/NOSR $                                       
1     SPHERICAL SHELL         RESTART WITH CLAMPED BOUNDARY                 /    95 SUN SOLARIS NASTRAN    / MAY 17, 95 / PAGE    17
      NASTRAN DEMONSTRATION PROBLEM NO. D01-02-1B                                                                                   

                                                                                                                                    

          COSMIC / NASTRAN DMAP COMPILER - SOURCE LISTING                                                                           
                                                                                                                                    
                                                                                                                                    

      65  EQUIV    KGG,KNN/MPCF1 $                                                

      66  COND     LBL2,MPCF2 $                                                   

      67  MCE1     USET,RG/GM $                                                   

      68  MCE2     USET,GM,KGG,,,/KNN,,, $                                        

      69  LABEL    LBL2 $                                                         
+  +

      70  EQUIV    KNN,KFF/SINGLE $                                               
+  *

      71  COND     LBL3,SINGLE $                                                  
+  *

      72  SCE1     USET,KNN,,,/KFF,KFS,KSS,,, $                                   
+  *

      73  LABEL    LBL3 $                                                         
+  +

      74  EQUIV    KFF,KAA/OMIT $                                                 
+  *

      75  COND     LBL5,OMIT $                                                    
+  *

      76  SMP1     USET,KFF,,,/GO,KAA,KOO,LOO,,,,, $                              
+  *

      77  LABEL    LBL5 $                                                         
+  +

      78  EQUIV    KAA,KLL/REACT $                                                
+  *

      79  COND     LBL6,REACT $                                                   
+  *

      80  RBMG1    USET,KAA,/KLL,KLR,KRR,,, $                                     
+  *

      81  LABEL    LBL6 $                                                         
+  +

      82  RBMG2    KLL/LLL $                                                      
+  *

      83  COND     LBL7,REACT $                                                   
+  *

      84  RBMG3    LLL,KLR,KRR/DM $                                               
+  *

      85  LABEL    LBL7 $                                                         
+  +

      86  SSG1     SLT,BGPDT,CSTM,SIL,EST,MPT,GPTT,EDT,MGG,CASECC,DIT,PCOMPS/     
                   PG,,,,/LUSET/NSKIP/COMPS $                                     

      87  EQUIV    PG,PL/NOSET $                                                  
+  *
1     SPHERICAL SHELL         RESTART WITH CLAMPED BOUNDARY                 /    95 SUN SOLARIS NASTRAN    / MAY 17, 95 / PAGE    18
      NASTRAN DEMONSTRATION PROBLEM NO. D01-02-1B                                                                                   

                                                                                                                                    

          COSMIC / NASTRAN DMAP COMPILER - SOURCE LISTING                                                                           
                                                                                                                                    
                                                                                                                                    

      88  COND     LBL10,NOSET $                                                  
+  *

      89  SSG2     USET,GM,YS,KFS,GO,DM,PG/QR,PO,PS,PL $                          
+  *

      90  LABEL    LBL10 $                                                        
+  +

      91  SSG3     LLL,KLL,PL,LOO,KOO,PO/ULV,UOOV,RULV,RUOV/OMIT/V,Y,IRES=-1/     
+  *
                   NSKIP/S,N,EPSI $                                               

      92  COND     LBL9,IRES $                                                    
+  *

      93  MATGPR   GPL,USET,SIL,RULV//*L* $                                       
+  *

      94  MATGPR   GPL,USET,SIL,RUOV//*O* $                                       
+  *

      95  LABEL    LBL9 $                                                         
+  +

      96  SDR1     USET,PG,ULV,UOOV,YS,GO,GM,PS,KFS,KSS,QR/UGV,PGG,QG/NSKIP/      
+  *
                   *STATICS* $                                                    

     100  PARAM    //*NOT*/TEST/REPEAT $                                          

     101  COND     ERROR5,TEST $                                                  

     103  GPFDR    CASECC,UGV,KELM,KDICT,ECT,EQEXIN,GPECT,PGG,QG/ONRGY1,OGPFB1/   
+  *
                   *STATICS* $                                                    

     104  PURGE    KDICT,KELM/REPEAT $                                            
+  *

     105  OFP      ONRGY1,OGPFB1,,,,//S,N,CARDNO $                                
+  *

     106  COND     NOMPCF,GRDEQ $                                                 

     107  EQMCK    CASECC,EQEXIN,GPL,BGPDT,SIL,USET,KGG,GM,UGV,PGG,QG,CSTM/       
                   OQM1/V,Y,OPT=0/V,Y,GRDEQ/NSKIP $                               

     108  OFP      OQM1,,,,,//S,N,CARDNO $                                        

     109  LABEL    NOMPCF $                                                       
+  +

     110  SDR2     CASECC,CSTM,MPT,DIT,EQEXIN,SIL,GPTT,EDT,BGPDP,,QG,UGV,EST,     
+  *
                   XYCDB,PGG,PCOMPS/OPG1,OQG1,OUGV1,OES1,OEF1,PUGV1,OES1L,        
                   OEF1L/*STATICS*/S,N,NOSORT2/-1/S,N,STRNFLG/COMPS $             

     111  COND     LBLSTRS,STRESS $                                               
+  *
1     SPHERICAL SHELL         RESTART WITH CLAMPED BOUNDARY                 /    95 SUN SOLARIS NASTRAN    / MAY 17, 95 / PAGE    19
      NASTRAN DEMONSTRATION PROBLEM NO. D01-02-1B                                                                                   

                                                                                                                                    

          COSMIC / NASTRAN DMAP COMPILER - SOURCE LISTING                                                                           
                                                                                                                                    
                                                                                                                                    

     112  CURV     OES1,MPT,CSTM,EST,SIL,GPL/OES1M,OES1G/V,Y,STRESS/              
+  *
                   V,Y,NINTPTS $                                                  

     113  LABEL    LBLSTRS $                                                      
+  +

     114  PURGE    OES1M/STRESS $                                                 
+  *

     115  COND     LBLSTRN,STRNFLG $                                              
+  *

     116  SDR2     CASECC,CSTM,MPT,DIT,EQEXIN,SIL,GPTT,EDT,BGPDT,,,UGV,EST,,,/    
+  *
                   ,,,OES1A,,,,/*STATICS*//1 $                                    

     117  COND     LBLSTRN,STRAIN $                                               
+  *

     118  CURV     OES1A,MPT,CSTM,EST,SIL,GPL/OES1AM,OES1AG/V,Y,STRAIN/           
+  *
                   V,Y,NINTPTS $                                                  

     119  LABEL    LBLSTRN $                                                      
+  +

     120  PURGE    OES1A/STRNFLG $                                                
+  *

     121  COND     LBL17,NOSORT2 $                                                
+  *

     122  SDR3     OUGV1,OPG1,OQG1,OEF1,OES1,/OUGV2,OPG2,OQG2,OEF2,OES2, $        
+  *

     123  PARAM    //*SUB*/PRTSORT2/NOSORT2/1 $                                   
+  *

     124  COND     LBLSORT1,PRTSORT2 $                                            
+  *

     125  OFP      OUGV2,OPG2,OQG2,OEF2,OES2,//S,N,CARDNO $                       
+  *

     126  SCAN     CASECC,OES2,OEF2,,/OESF2,/*RF* $                               
+  *

     127  OFP      OESF2,,,,,//S,N,CARDNO $                                       
+  *

     128  JUMP     LBLXYPLT $                                                     
+  *

     129  LABEL    LBLSORT1 $                                                     
+  +

     130  OFP      OUGV1,OPG1,OQG1,OEF1,OES1,//S,N,CARDNO $                       
+  *

     131  OFP      OEF1L,OES1L,,,,//S,N,CARDNO $                                  
+  *

     132  SCAN     CASECC,OES1,OEF1,OES1L,OEF1L/OESF1,OESF1L/*RF* $               
+  *

     133  OFP      OESF1,OESF1L,,,,//S,N,CARDNO $                                 
+  *
1     SPHERICAL SHELL         RESTART WITH CLAMPED BOUNDARY                 /    95 SUN SOLARIS NASTRAN    / MAY 17, 95 / PAGE    20
      NASTRAN DEMONSTRATION PROBLEM NO. D01-02-1B                                                                                   

                                                                                                                                    

          COSMIC / NASTRAN DMAP COMPILER - SOURCE LISTING                                                                           
                                                                                                                                    
                                                                                                                                    

     134  LABEL    LBLXYPLT $                                                     
+  +

     135  OFP      OES1M,OES1G,OES1A,OES1AM,OES1AG,//S,N,CARDNO $                 
+  *

     136  XYTRAN   XYCDB,OPG2,OQG2,OUGV2,OES2,OEF2/XYPLTT/*TRAN*/*PSET*/S,N,      
                   PFILE/S,N,CARDNO $                                             

     137  XYPLOT   XYPLTT// $                                                     

     138  JUMP     DPLOT $                                                        

     139  LABEL    LBL17 $                                                        
+  +

     140  PURGE    OUGV2/NOSORT2 $                                                
+  *

     141  COND     LBLOFP,COUNT $                                                 
+  *

     142  OPTPR2   OPTP1,OES1,EST/OPTP2,EST1/S,N,PRINT/TSTART/S,N,COUNT/S,N,      
+  *
                   CARDNO $                                                       

     143  EQUIV    EST1,EST/ALWAYS/OPTP2,OPTP1/ALWAYS $                           
+  *

     144  COND     LOOPEND,PRINT $                                                
+  *

     145  LABEL    LBLOFP $                                                       
+  +

     146  OFP      OUGV1,OPG1,OQG1,OEF1,OES1,//S,N,CARDNO $                       
+  *

     147  OFP      OEF1L,OES1L,,,,//S,N,CARDNO $                                  
+  *

     148  SCAN     CASECC,OES1,OEF1,OES1L,OEF1L/OESF1X,OESF1Y/*RF* $              
+  *

     149  OFP      OESF1X,OESF1Y,,,,//S,N,CARDNO $                                
+  *

     150  OFP      OES1M,OES1G,OES1A,OES1AM,OES1AG,//S,N,CARDNO $                 
+  *

     151  LABEL    DPLOT $                                                        
+  +

     152  COND     P2,JUMPPLOT $                                                  
+  *

     153  PLOT     PLTPAR,GPSETS,ELSETS,CASECC,BGPDT,EQEXIN,SIP,PUGV1,,GPECT,OES1,
+  *
                   OES1L,ONRGY1/PLOTX2/NSIL/LUSEP/JUMPPLOT/PLTFLG/S,N,PFILE $     

     154  PRTMSG   PLOTX2// $                                                     
+  *

     155  LABEL    P2 $                                                           
+  +
1     SPHERICAL SHELL         RESTART WITH CLAMPED BOUNDARY                 /    95 SUN SOLARIS NASTRAN    / MAY 17, 95 / PAGE    21
      NASTRAN DEMONSTRATION PROBLEM NO. D01-02-1B                                                                                   

                                                                                                                                    

          COSMIC / NASTRAN DMAP COMPILER - SOURCE LISTING                                                                           
                                                                                                                                    
                                                                                                                                    

     156  LABEL    LOOPEND $                                                      
+  +

     157  COND     FINIS,COUNT $                                                  
+  *

     158  REPT     LOOPTOP,360 $                                                  
+  *

     159  JUMP     FINIS $                                                        
+  *

     162  LABEL    ERROR2 $                                                       
+  +

     163  PRTPARM  //-2/*STATICS* $                                               

     164  LABEL    ERROR3 $                                                       
+  +

     165  PRTPARM  //-3/*STATICS* $                                               
+  *

     166  LABEL    ERROR4 $                                                       
+  +

     167  PRTPARM  //-4/*STATICS* $                                               

     168  LABEL    ERROR5 $                                                       
+  +

     169  PRTPARM  //-5/*STATICS* $                                               

     170  LABEL    FINIS $                                                        
+  +

     171  PURGE    DUMMY/ALWAYS $                                                 
+  *

     172  LABEL    LBLINT02 $                                                     
+  +

     173  COMPON   LBLINT01,SYS21 $                                               

     228  END      $                                                              
+  *
0
0  + INDICATES DMAP INSTRUCTIONS THAT ARE PROCESSED ONLY AT DMAP COMPILATION TIME.
0  * INDICATES DMAP INSTRUCTIONS THAT ARE FLAGGED FOR EXECUTION IN THIS MODIFIED RESTART.
1     SPHERICAL SHELL         RESTART WITH CLAMPED BOUNDARY                 /    95 SUN SOLARIS NASTRAN    / MAY 17, 95 / PAGE    22
      NASTRAN DEMONSTRATION PROBLEM NO. D01-02-1B                                                                                   
0                                                                                                                                   
0THE FOLLOWING FILES FROM THE OLD PROBLEM TAPE WERE USED TO INITIATE RESTART

    FILE NAME  REEL NO.  FILE NO.

     GPTT      (PURGED)
     MPTX      (PURGED)
     PCOMPS    (PURGED)
     EPTX      (PURGED)
     OPTP1     (PURGED)
     OPTP2     (PURGED)
     EST1      (PURGED)
     KELM      (PURGED)
     KDICT     (PURGED)
     GM        (PURGED)
     GPL              1         6
     EQEXIN           1         7
     GPDT             1         8
     CSTM             1         9
     BGPDT            1        10
     SIL              1        11
     BGPDP            1        16
     SIP              1        17
     ECT              1        19
     EST              1        31
     GPECT            1        32
     KGGX             1        43
     KGG              1        43
     KNN              1        43
     GPST             1        47
     PG               1        63
     XVPS             1        89
0          **NO ERRORS FOUND - EXECUTE NASTRAN PROGRAM**
0*** USER INFORMATION MESSAGE 3035
     FOR SUBCASE NUMBER     1, EPSILON SUB E =  -2.5769482E-16
1     SPHERICAL SHELL         RESTART WITH CLAMPED BOUNDARY                 /    95 SUN SOLARIS NASTRAN    / MAY 17, 95 / PAGE    23
      NASTRAN DEMONSTRATION PROBLEM NO. D01-02-1B                                                                                   
0                                                                                                                                   
 
                                             D I S P L A C E M E N T   V E C T O R
 
      POINT ID.   TYPE          T1             T2             T3             R1             R2             R3
             1      G     -5.480684E-04   1.919411E-05   0.0            0.0            0.0           -1.786571E-07                  
             2      G     -5.261355E-04   3.683910E-05   0.0            0.0            0.0           -3.821245E-06                  
             3      G     -4.213421E-04   4.607316E-05   0.0            0.0            0.0           -1.503945E-05                  
             4      G     -1.844341E-04   3.363041E-05   0.0            0.0            0.0           -2.690171E-05                  
             5      G      0.0            0.0            0.0            0.0            0.0            0.0                           
             6      G     -5.446583E-04   1.894586E-05  -8.010631E-13   9.706269E-13  -8.955855E-13  -8.225492E-07                  
             7      G     -5.167566E-04   3.597763E-05   3.338573E-07   1.984027E-06   9.699154E-07  -4.771032E-06                  
             8      G     -4.086168E-04   4.493846E-05   8.302441E-07   3.475891E-06   1.024308E-06  -1.541586E-05                  
             9      G     -1.767535E-04   3.389497E-05   3.588728E-07   8.759924E-06  -3.347110E-07  -2.501015E-05                  
            10      G      0.0            0.0            0.0            0.0            0.0            0.0                           
            11      G     -5.480684E-04   1.919411E-05   0.0            0.0            0.0           -1.786555E-07                  
            12      G     -5.167567E-04   3.597763E-05  -3.338596E-07  -1.984026E-06  -9.699182E-07  -4.771030E-06                  
            13      G     -4.019238E-04   4.497120E-05  -1.313271E-12  -4.853816E-12   4.966254E-13  -1.521853E-05                  
            14      G     -1.739155E-04   3.380157E-05   1.477445E-07   3.014262E-06  -1.436867E-07  -2.421151E-05                  
            15      G      0.0            0.0            0.0            0.0            0.0            0.0                           
            16      G     -5.261355E-04   3.683910E-05   0.0            0.0            0.0           -3.821243E-06                  
            17      G     -4.086168E-04   4.493846E-05  -8.302458E-07  -3.475893E-06  -1.024311E-06  -1.541586E-05                  
            18      G     -1.739154E-04   3.380155E-05  -1.477457E-07  -3.014247E-06   1.436883E-07  -2.421150E-05                  
            19      G      0.0            0.0            0.0            0.0            0.0            0.0                           
            20      G     -4.213421E-04   4.607316E-05   0.0            0.0            0.0           -1.503946E-05                  
            21      G     -1.767535E-04   3.389498E-05  -3.588742E-07  -8.759933E-06   3.347079E-07  -2.501015E-05                  
            22      G      0.0            0.0            0.0            0.0            0.0            0.0                           
            23      G     -1.844341E-04   3.363042E-05   0.0            0.0            0.0           -2.690171E-05                  
            24      G      0.0            0.0            0.0            0.0            0.0            0.0                           
            25      G      0.0            0.0            0.0            0.0            0.0            0.0                           
            26      G      0.0            0.0           -5.529767E-04   0.0            0.0            0.0                           
1     SPHERICAL SHELL         RESTART WITH CLAMPED BOUNDARY                 /    95 SUN SOLARIS NASTRAN    / MAY 17, 95 / PAGE    24
      NASTRAN DEMONSTRATION PROBLEM NO. D01-02-1B                                                                                   
0                                                                                                                                   
 
                               F O R C E S   O F   S I N G L E - P O I N T   C O N S T R A I N T
 
      POINT ID.   TYPE          T1             T2             T3             R1             R2             R3
             1      G      0.0            0.0            5.174022E+02   2.037890E-01  -2.497954E+01   0.0                           
             2      G      0.0            0.0            5.017265E+02  -2.312392E-01  -4.489198E+01   0.0                           
             3      G      0.0            0.0            4.129291E+02  -6.724325E-01  -7.711040E+01   0.0                           
             4      G      0.0            0.0            1.962602E+02   6.025845E-01  -6.132825E+01   0.0                           
             5      G      4.300203E+01  -2.280616E+02  -1.827229E+00  -1.047866E+01   8.151964E+01   2.243964E+02                  
            10      G      8.261316E+01  -4.939240E+02   9.848739E+00   6.742922E+00   7.953281E+01   4.565710E+02                  
            11      G      0.0            0.0           -5.174022E+02  -2.037888E-01   2.497954E+01   0.0                           
            15      G      8.074376E+01  -4.870376E+02   3.213462E+00   2.198295E+00   3.223590E+01   4.434538E+02                  
            16      G      0.0            0.0           -5.017265E+02   2.312396E-01   4.489196E+01   0.0                           
            19      G      8.068778E+01  -4.846935E+02  -1.833121E-05  -5.761797E-06  -1.007727E-05   4.442120E+02                  
            20      G      0.0            0.0           -4.129291E+02   6.724332E-01   7.711041E+01   0.0                           
            22      G      8.074377E+01  -4.870377E+02  -3.213438E+00  -2.198283E+00  -3.223587E+01   4.434537E+02                  
            23      G      0.0            0.0           -1.962603E+02  -6.025877E-01   6.132829E+01   0.0                           
            24      G      8.261316E+01  -4.939240E+02  -9.848740E+00  -6.742932E+00  -7.953275E+01   4.565711E+02                  
            25      G      4.300204E+01  -2.280617E+02   1.827244E+00   1.047867E+01  -8.151970E+01   2.243965E+02                  
            26      G      2.597384E+02   2.597384E+02   0.0           -9.912969E+00   9.912971E+00  -1.545535E-07                  
1     SPHERICAL SHELL         RESTART WITH CLAMPED BOUNDARY                 /    95 SUN SOLARIS NASTRAN    / MAY 17, 95 / PAGE    25
      NASTRAN DEMONSTRATION PROBLEM NO. D01-02-1B                                                                                   
0                                                                                                                                   
 
                     F O R C E S   I N   G E N E R A L   T R I A N G U L A R   E L E M E N T S        ( C T R I A 2 )
0        ELEMENT           BEND-MOMENT           BEND-MOMENT          TWIST-MOMENT             SHEAR                 SHEAR
           ID.                 X                     Y                                           X                     Y
               1          4.185772E-01          1.986923E-01         -3.011416E-01          2.558608E-01         -2.197533E-01      
               2          4.185343E-01          1.986923E-01          3.011148E-01         -2.558495E-01         -2.197456E-01      
               3          2.363556E+00          2.906897E+00         -1.327577E-01          1.507044E-01          3.464928E-01      
               4          5.598302E-01          2.012604E+00         -5.302541E-01         -3.588934E-01         -3.864098E-01      
               5          5.593891E-01          3.044006E+00         -1.369496E-05         -1.177101E-05          4.590988E-01      
               6          5.597072E-01          2.012619E+00          5.303126E-01          3.588743E-01         -3.863907E-01      
               7          2.363511E+00          2.906837E+00          1.327330E-01         -1.506929E-01          3.464546E-01      
               8          5.038669E+00          7.921600E+00          2.392047E-01          2.791443E-01          4.559593E-01      
               9          2.812561E+00          6.635864E+00         -5.189347E-01         -2.232857E-01         -3.519287E-01      
              10          3.484224E+00          7.523854E+00          2.719898E-01          3.291059E-02          5.066795E-01      
              11          1.554000E+00          5.873881E+00         -2.763301E-05          1.770727E-05         -4.265156E-01      
              12          3.484192E+00          7.523885E+00         -2.719622E-01         -3.295588E-02          5.066872E-01      
              13          2.812610E+00          6.635900E+00          5.189408E-01          2.232676E-01         -3.519707E-01      
              14          5.038725E+00          7.921627E+00         -2.391962E-01         -2.791319E-01          4.559822E-01      
              15          5.682122E+00          7.785271E+00          6.900254E-01          4.586849E-01         -1.910248E-01      
              16          4.005364E+00          7.165224E+00          4.720891E-02         -1.749034E-01          6.511726E-01      
              17          4.811410E+00          6.603031E+00          5.652848E-01          1.765912E-01         -2.055435E-01      
              18          3.353351E+00          6.008838E+00          1.629866E-01          1.155496E-02          3.259964E-01      
              19          4.706399E+00          6.421966E+00         -7.387168E-06         -1.333331E-05         -2.826748E-01      
              20          3.353328E+00          6.008839E+00         -1.629723E-01         -1.157880E-02          3.260174E-01      
              21          4.811429E+00          6.603067E+00         -5.652763E-01         -1.765904E-01         -2.055244E-01      
              22          4.005297E+00          7.165242E+00         -4.717469E-02          1.749210E-01          6.511955E-01      
              23          5.682114E+00          7.785252E+00         -6.900322E-01         -4.586897E-01         -1.910019E-01      
              24         -2.291738E+00         -1.914076E+01         -8.438914E-01         -5.777880E-01         -3.077005E+00      
              25         -2.896624E-01         -1.206918E+01          1.178883E+00          1.314135E-01          2.868053E+00      
              26         -1.799920E+00         -1.746300E+01         -7.531830E-01         -2.757806E-01         -2.982448E+00      
              27          2.612164E-01         -1.281880E+01          6.957340E-01         -9.183884E-04          2.766027E+00      
              28         -1.517951E+00         -1.642890E+01         -2.628676E-01         -9.626025E-02         -3.047090E+00      
              29          3.463801E-01         -1.308880E+01          9.536743E-07         -4.768372E-06          2.767863E+00      
              30         -1.517932E+00         -1.642889E+01          2.628653E-01          9.626486E-02         -3.047089E+00      
              31          2.612212E-01         -1.281878E+01         -6.957431E-01          9.188652E-04          2.766024E+00      
              32         -1.799925E+00         -1.746300E+01          7.531919E-01          2.757857E-01         -2.982447E+00      
              33         -2.896948E-01         -1.206919E+01         -1.178888E+00         -1.314259E-01          2.868062E+00      
              34         -2.291726E+00         -1.914075E+01          8.438944E-01          5.777926E-01         -3.077008E+00      
1     SPHERICAL SHELL         RESTART WITH CLAMPED BOUNDARY                 /    95 SUN SOLARIS NASTRAN    / MAY 17, 95 / PAGE    26
      NASTRAN DEMONSTRATION PROBLEM NO. D01-02-1B                                                                                   
0                                                                                                                                   
 
                  S T R E S S E S   I N   G E N E R A L   T R I A N G U L A R   E L E M E N T S       ( C T R I A 2 )
                                                  (IN ELEMENT COORDINATE SYSTEM)

  ELEMENT      FIBRE               STRESSES IN ELEMENT COORD SYSTEM             PRINCIPAL STRESSES (ZERO SHEAR)            MAX
    ID.       DISTANCE           NORMAL-X       NORMAL-Y      SHEAR-XY       ANGLE         MAJOR           MINOR          SHEAR
0       1   -1.500000E+00     -1.537994E+01  -1.561765E+01  -1.941972E-01   -29.2663   -1.527111E+01   -1.572647E+01   2.276807E-01 
             1.500000E+00     -1.593804E+01  -1.588257E+01   2.073250E-01    48.8101   -1.570113E+01   -1.611948E+01   2.091722E-01 
0       2   -1.500000E+00     -1.537997E+01  -1.561765E+01   1.941795E-01    29.2667   -1.527115E+01   -1.572647E+01   2.276577E-01 
             1.500000E+00     -1.593802E+01  -1.588257E+01  -2.073069E-01   -48.8086   -1.570114E+01   -1.611945E+01   2.091525E-01 
0       3   -1.500000E+00     -1.346805E+01  -1.376185E+01  -3.615104E-03    -0.7049   -1.346800E+01   -1.376189E+01   1.469456E-01 
             1.500000E+00     -1.661945E+01  -1.763771E+01   1.733951E-01     9.4037   -1.659074E+01   -1.766643E+01   5.378455E-01 
0       4   -1.500000E+00     -1.526523E+01  -1.428504E+01  -3.849511E-01   -70.9258   -1.415193E+01   -1.539833E+01   6.231992E-01 
             1.500000E+00     -1.601167E+01  -1.696851E+01   3.220544E-01    16.9734   -1.591337E+01   -1.706681E+01   5.767223E-01 
0       5   -1.500000E+00     -1.482904E+01  -1.366700E+01  -9.086680E-06   -89.9995   -1.366700E+01   -1.482904E+01   5.810175E-01 
             1.500000E+00     -1.557489E+01  -1.772568E+01   9.173271E-06     0.0002   -1.557489E+01   -1.772568E+01   1.075394E+00 
0       6   -1.500000E+00     -1.526531E+01  -1.428503E+01   3.849901E-01    70.9257   -1.415191E+01   -1.539843E+01   6.232616E-01 
             1.500000E+00     -1.601159E+01  -1.696852E+01  -3.220934E-01   -16.9738   -1.591327E+01   -1.706683E+01   5.767797E-01 
0       7   -1.500000E+00     -1.346807E+01  -1.376188E+01   3.598690E-03     0.7016   -1.346803E+01   -1.376193E+01   1.469490E-01 
             1.500000E+00     -1.661942E+01  -1.763767E+01  -1.733787E-01    -9.4030   -1.659071E+01   -1.766638E+01   5.378339E-01 
0       8   -1.500000E+00     -8.936809E+00  -1.037887E+01   6.296102E-01    20.5639   -8.700606E+00   -1.061507E+01   9.572326E-01 
             1.500000E+00     -1.565503E+01  -2.094100E+01   3.106705E-01     3.3520   -1.563684E+01   -2.095920E+01   2.661181E+00 
0       9   -1.500000E+00     -1.309164E+01  -1.081326E+01  -6.620051E-01   -74.9192   -1.063487E+01   -1.327002E+01   1.317575E+00 
             1.500000E+00     -1.684172E+01  -1.966108E+01   2.990788E-02     0.6077   -1.684140E+01   -1.966139E+01   1.409997E+00 
0      10   -1.500000E+00     -1.008639E+01  -1.064912E+01   2.823195E-01    22.5486   -9.969171E+00   -1.076634E+01   3.985846E-01 
             1.500000E+00     -1.473202E+01  -2.068092E+01  -8.033353E-02    -0.7735   -1.473094E+01   -2.068201E+01   2.975535E+00 
0      11   -1.500000E+00     -1.402112E+01  -1.091102E+01  -1.949634E-05   -89.9996   -1.091102E+01   -1.402112E+01   1.555050E+00 
             1.500000E+00     -1.609312E+01  -1.874286E+01   1.734767E-05     0.0004   -1.609312E+01   -1.874286E+01   1.324871E+00 
0      12   -1.500000E+00     -1.008642E+01  -1.064910E+01  -2.823020E-01   -22.5488   -9.969201E+00   -1.076631E+01   3.985567E-01 
             1.500000E+00     -1.473201E+01  -2.068095E+01   8.031425E-02     0.7733   -1.473092E+01   -2.068203E+01   2.975554E+00 
0      13   -1.500000E+00     -1.309160E+01  -1.081323E+01   6.620108E-01    74.9190   -1.063484E+01   -1.326999E+01   1.317574E+00 
             1.500000E+00     -1.684175E+01  -1.966110E+01  -2.991027E-02    -0.6078   -1.684143E+01   -1.966142E+01   1.409993E+00 
0      14   -1.500000E+00     -8.936771E+00  -1.037886E+01  -6.296041E-01   -20.5635   -8.700577E+00   -1.061505E+01   9.572375E-01 
             1.500000E+00     -1.565507E+01  -2.094103E+01  -3.106758E-01    -3.3521   -1.563688E+01   -2.095922E+01   2.661174E+00 
0      15   -1.500000E+00     -2.553598E+00  -9.929503E+00   1.581766E+00    11.6073   -2.228699E+00   -1.025440E+01   4.012852E+00 
             1.500000E+00     -1.012976E+01  -2.030986E+01   6.617323E-01     3.7036   -1.008693E+01   -2.035270E+01   5.132886E+00 
1     SPHERICAL SHELL         RESTART WITH CLAMPED BOUNDARY                 /    95 SUN SOLARIS NASTRAN    / MAY 17, 95 / PAGE    27
      NASTRAN DEMONSTRATION PROBLEM NO. D01-02-1B                                                                                   
0                                                                                                                                   
 
                  S T R E S S E S   I N   G E N E R A L   T R I A N G U L A R   E L E M E N T S       ( C T R I A 2 )
                                                  (IN ELEMENT COORDINATE SYSTEM)

  ELEMENT      FIBRE               STRESSES IN ELEMENT COORD SYSTEM             PRINCIPAL STRESSES (ZERO SHEAR)            MAX
    ID.       DISTANCE           NORMAL-X       NORMAL-Y      SHEAR-XY       ANGLE         MAJOR           MINOR          SHEAR
0      16   -1.500000E+00     -9.371593E+00  -9.358008E+00  -8.392524E-01   -45.2319   -8.525521E+00   -1.020408E+01   8.392799E-01 
             1.500000E+00     -1.471208E+01  -1.891164E+01  -9.021977E-01   -11.6257   -1.452646E+01   -1.909726E+01   2.285396E+00 
0      17   -1.500000E+00     -3.102994E+00  -1.084871E+01   1.048301E+00     7.5729   -2.963625E+00   -1.098808E+01   4.012226E+00 
             1.500000E+00     -9.518208E+00  -1.965275E+01   2.945874E-01     1.6636   -9.509651E+00   -1.966131E+01   5.075827E+00 
0      18   -1.500000E+00     -9.784378E+00  -9.322620E+00  -1.699941E-01   -71.8181   -9.266788E+00   -9.840210E+00   2.867107E-01 
             1.500000E+00     -1.425551E+01  -1.733440E+01  -3.873096E-01    -7.0610   -1.420754E+01   -1.738238E+01   1.587419E+00 
0      19   -1.500000E+00     -3.170548E+00  -1.110754E+01  -4.459406E-06     0.0000   -3.170548E+00   -1.110754E+01   3.968494E+00 
             1.500000E+00     -9.445747E+00  -1.967016E+01   5.390151E-06     0.0000   -9.445747E+00   -1.967016E+01   5.112205E+00 
0      20   -1.500000E+00     -9.784395E+00  -9.322623E+00   1.700054E-01    71.8176   -9.266786E+00   -9.840232E+00   2.867231E-01 
             1.500000E+00     -1.425550E+01  -1.733441E+01   3.873017E-01     7.0608   -1.420753E+01   -1.738238E+01   1.587426E+00 
0      21   -1.500000E+00     -3.102981E+00  -1.084869E+01  -1.048296E+00    -7.5729   -2.963614E+00   -1.098806E+01   4.012221E+00 
             1.500000E+00     -9.518219E+00  -1.965278E+01  -2.945946E-01    -1.6636   -9.509663E+00   -1.966133E+01   5.075836E+00 
0      22   -1.500000E+00     -9.371638E+00  -9.357996E+00   8.392751E-01    45.2328   -8.525514E+00   -1.020412E+01   8.393028E-01 
             1.500000E+00     -1.471204E+01  -1.891165E+01   9.021747E-01    11.6253   -1.452643E+01   -1.909726E+01   2.285413E+00 
0      23   -1.500000E+00     -2.553603E+00  -9.929518E+00  -1.581772E+00   -11.6073   -2.228702E+00   -1.025442E+01   4.012858E+00 
             1.500000E+00     -1.012976E+01  -2.030985E+01  -6.617290E-01    -3.7036   -1.008692E+01   -2.035269E+01   5.132883E+00 
0      24   -1.500000E+00     -3.690343E+00  -2.574081E+01   3.117485E-01     0.8098   -3.685937E+00   -2.574522E+01   1.102964E+01 
             1.500000E+00     -6.346928E-01  -2.197981E-01   1.436937E+00    49.1075    1.024589E+00   -1.879080E+00   1.451834E+00 
0      25   -1.500000E+00     -6.110115E+00  -2.061674E+01   7.112551E-02     0.2809   -6.109766E+00   -2.061709E+01   7.253662E+00 
             1.500000E+00     -5.723898E+00  -4.524503E+00  -1.500719E+00   -55.8910   -3.508096E+00   -6.740305E+00   1.616104E+00 
0      26   -1.500000E+00     -3.473177E+00  -2.528684E+01   3.982705E-02     0.1046   -3.473104E+00   -2.528691E+01   1.090690E+01 
             1.500000E+00     -1.073284E+00  -2.002846E+00   1.044071E+00    33.0016   -3.952147E-01   -2.680915E+00   1.142850E+00 
0      27   -1.500000E+00     -5.575346E+00  -2.042859E+01   1.475643E-01     0.5691   -5.573880E+00   -2.043005E+01   7.428086E+00 
             1.500000E+00     -5.923635E+00  -3.336851E+00  -7.800812E-01   -74.4523   -3.119816E+00   -6.140669E+00   1.510427E+00 
0      28   -1.500000E+00     -3.332322E+00  -2.488029E+01   6.699562E-03     0.0178   -3.332319E+00   -2.488029E+01   1.077399E+01 
             1.500000E+00     -1.308386E+00  -2.975090E+00   3.571897E-01    11.6004   -1.235063E+00   -3.048413E+00   9.066751E-01 
0      29   -1.500000E+00     -5.456151E+00  -2.038676E+01   2.066294E-06     0.0000   -5.456151E+00   -2.038676E+01   7.465307E+00 
             1.500000E+00     -5.917991E+00  -2.935028E+00   7.947286E-07    90.0000   -2.935028E+00   -5.917991E+00   1.491481E+00 
0      30   -1.500000E+00     -3.332309E+00  -2.488029E+01  -6.700203E-03    -0.0178   -3.332306E+00   -2.488029E+01   1.077399E+01 
             1.500000E+00     -1.308399E+00  -2.975101E+00  -3.571873E-01   -11.6004   -1.235077E+00   -3.048423E+00   9.066732E-01 
1     SPHERICAL SHELL         RESTART WITH CLAMPED BOUNDARY                 /    95 SUN SOLARIS NASTRAN    / MAY 17, 95 / PAGE    28
      NASTRAN DEMONSTRATION PROBLEM NO. D01-02-1B                                                                                   
0                                                                                                                                   
 
                  S T R E S S E S   I N   G E N E R A L   T R I A N G U L A R   E L E M E N T S       ( C T R I A 2 )
                                                  (IN ELEMENT COORDINATE SYSTEM)

  ELEMENT      FIBRE               STRESSES IN ELEMENT COORD SYSTEM             PRINCIPAL STRESSES (ZERO SHEAR)            MAX
    ID.       DISTANCE           NORMAL-X       NORMAL-Y      SHEAR-XY       ANGLE         MAJOR           MINOR          SHEAR
0      31   -1.500000E+00     -5.575344E+00  -2.042857E+01  -1.475722E-01    -0.5692   -5.573878E+00   -2.043004E+01   7.428081E+00 
             1.500000E+00     -5.923639E+00  -3.336866E+00   7.800853E-01    74.4522   -3.119829E+00   -6.140677E+00   1.510424E+00 
0      32   -1.500000E+00     -3.473180E+00  -2.528683E+01  -3.982210E-02    -0.1046   -3.473106E+00   -2.528691E+01   1.090690E+01 
             1.500000E+00     -1.073279E+00  -2.002831E+00  -1.044078E+00   -33.0018   -3.952012E-01   -2.680910E+00   1.142854E+00 
0      33   -1.500000E+00     -6.110137E+00  -2.061675E+01  -7.112855E-02    -0.2809   -6.109787E+00   -2.061710E+01   7.253656E+00 
             1.500000E+00     -5.723876E+00  -4.524496E+00   1.500723E+00    55.8908   -3.508081E+00   -6.740292E+00   1.616105E+00 
0      34   -1.500000E+00     -3.690335E+00  -2.574081E+01  -3.117469E-01    -0.8098   -3.685928E+00   -2.574522E+01   1.102964E+01 
             1.500000E+00     -6.347011E-01  -2.198019E-01  -1.436939E+00   -49.1075    1.024585E+00   -1.879088E+00   1.451837E+00 




                                        * * * END OF JOB * * *
1
 JOB TITLE =  SPHERICAL SHELL         RESTART WITH CLAMPED BOUNDARY              
 DATE:  5/17/95
 END TIME: 14:29:53
 TOTAL WALL CLOCK TIME      1 SEC.
 
