





                                  ****
                                *      *
                               *        *
                               *  N A S T R A N
                               *        *
                                *      *
                                  ****


                             SUN COMPUTER SYSTEMS    
                                SOLARIS VERSION

                          SYSTEM RELEASE -  1995 ED.

                                DISTRIBUTED BY

         COMPUTER SOFTWARE MANAGEMENT AND INFORMATION CENTER (COSMIC)
                 UNIVERSITY OF GEORGIA, ATHENS, GEORGIA 30602
                 PHONE: (706)542-3265      FAX: (706)542-4807
1                                                                           /    95 SUN SOLARIS NASTRAN    / MAY 17, 95 / PAGE     2
                                                                                                                                    
0                                                                                                                                   
                                                                                                         
                                                                                                         
                         INSTALLATION CENTER USER INFORMATION GIVEN IN THIS SECTION                      
                                                                                                         
                                     *********************************************                       
                                     *                                           *                       
                                     *  PLEASE READ THE COMMENT IN DEMO PROBLEM  *                       
                                     *  D01002A ABOUT SYSTEM TIMING CONSTANTS    *                       
                                     *                                           *                       
                                     *********************************************                       
                                                                                                         
                         ===X=    TOP OF PAGE REQUEST IF 'X' IS REPLACED BY '='                          
                                                                                                         
1                                                                           /    95 SUN SOLARIS NASTRAN    / MAY 17, 95 / PAGE     3
                                                                                                                                    
0                                                                                                                                   
0*** USER INFORMATION MESSAGE 225, GINO TIME CONSTANTS ARE BEING COMPUTED
     (SEE NASINFO FILE FOR ELIMINATION OF THESE COMPUTATIONS)
1                                                                           /    95 SUN SOLARIS NASTRAN    / MAY 17, 95 / PAGE     4
                                                                                                                                    
0        N A S T R A N    E X E C U T I V E    C O N T R O L    D E C K    E C H O                                                  
0                                                                                                                                   
                                                                                                                                    
                                                                                                                                    
     ID    D01071A,NASTRAN                                                           
     APP   DISPLACEMENT                                                              
     SOL   1,1                                                                       
     TIME  5                                                                         
     CEND                                                                            


0*** USER INFORMATION MESSAGE, TURN DIAG 48 ON FOR NASTRAN RELEASE NEWS, DIAG DEFINITION, NEW DMAP
         MODULES AND NEW BULKDATA CARDS INFORMATION
1     SPHERICAL SHELL WITH TOROIDAL RING ELEMENT                            /    95 SUN SOLARIS NASTRAN    / MAY 17, 95 / PAGE     5
      NASTRAN DEMONSTRATION PROBLEM NO. D01-07-1A                                                                                   
0     EXTERNAL PRESSURE LOADING                                                                                                     
0                                        C A S E    C O N T R O L   D E C K   E C H O                                               
                 CARD                                                                                                               
                 COUNT                                                                                                              
                  1      TITLE    = SPHERICAL SHELL WITH TOROIDAL RING ELEMENT                           
                  2      SUBTITLE = NASTRAN DEMONSTRATION PROBLEM NO. D01-07-1A                          
                  3      LABEL    = EXTERNAL PRESSURE LOADING                                            
                  4          SPC  = 1                                                                    
                  5          LOAD = 1                                                                    
                  6      OUTPUT                                                                          
                  7          DISP = ALL                                                                  
                  8         OLOAD = ALL                                                                  
                  9       ELFORCE = ALL                                                                  
                 10      STRESSES = ALL                                                                  
                 11      BEGIN BULK                                                                      


                        (NO. OF UNSORTED BULK DATA CARDS READ =    56, INCLUDING   0 COMMENT CARDS)
0*** USER INFORMATION MESSAGE 207, BULK DATA DECK IS NOT SORTED. NASTRAN WILL RE-ORDER THE INPUT DECK.
1     SPHERICAL SHELL WITH TOROIDAL RING ELEMENT                            /    95 SUN SOLARIS NASTRAN    / MAY 17, 95 / PAGE     6
      NASTRAN DEMONSTRATION PROBLEM NO. D01-07-1A                                                                                   
0     EXTERNAL PRESSURE LOADING                                                                                                     
0                                                 S O R T E D   B U L K    D A T A    E C H O                                       
                     CARD                                                                                                           
                     COUNT        ---1--- +++2+++ ---3--- +++4+++ ---5--- +++6+++ ---7--- +++8+++ ---9--- +++10+++                  
                    1-        CTORDRG 1       1       1       2       .0      2.0                             
                    2-        CTORDRG 2       1       2       3       2.0     4.0                             
                    3-        CTORDRG 3       1       3       4       4.0     6.0                             
                    4-        CTORDRG 4       1       4       5       6.0     8.0                             
                    5-        CTORDRG 5       1       5       6       8.0     10.0                            
                    6-        CTORDRG 6       1       6       7       10.0    15.0                            
                    7-        CTORDRG 7       1       7       8       15.0    20.0                            
                    8-        CTORDRG 8       1       8       9       20.0    25.0                            
                    9-        CTORDRG 9       1       9       10      25.0    27.0                            
                   10-        CTORDRG 10      1       10      11      27.0    29.0                            
                   11-        CTORDRG 11      1       11      12      29.0    31.0                            
                   12-        CTORDRG 12      1       12      13      31.0    33.0                            
                   13-        CTORDRG 13      1       13      14      33.0    35.0                            
                   14-        FORCE   1       1       0       1.0     .0      .0      -8.85885                
                   15-        FORCE   1       2       0       1.0     -2.16381.0      -61.9635                
                   16-        FORCE   1       3       0       1.0     -8.64421.0      -123.618                
                   17-        FORCE   1       4       0       1.0     -19.4063.0      -184.639                
                   18-        FORCE   1       5       0       1.0     -34.4036.0      -244.795                
                   19-        FORCE   1       6       0       1.0     -101.669.0      -576.596                
                   20-        FORCE   1       7       0       1.0     -297.393.0      -1109.89                
                   21-        FORCE   1       8       0       1.0     -519.309.0      -1426.79                
                   22-        FORCE   1       9       0       1.0     -537.246.0      -1153.13                
                   23-        FORCE   1       10      0       1.0     -366.120.0      -718.555                
                   24-        FORCE   1       11      0       1.0     -417.584.0      -753.352                
                   25-        FORCE   1       12      0       1.0     -471.266.0      -784.318                
                   26-        FORCE   1       13      0       1.0     -526.891.0      -811.340                
                   27-        GRDSET                                                  2                       
                   28-        GRID    1       0       .0      .0      90.00                                   
                   29-        GRID    2       0       3.141   .0      89.9451                                 
                   30-        GRID    3       0       6.2784  .0      89.7804                                 
                   31-        GRID    4       0       9.4077  .0      89.5068                                 
                   32-        GRID    5       0       12.5253 .0      89.1243                                 
                   33-        GRID    6       0       15.6285 .0      88.6329                                 
                   34-        GRID    7       0       23.2938 .0      86.9337                                 
                   35-        GRID    8       0       30.7818 .0      84.5721                                 
                   36-        GRID    9       0       38.0358 .0      81.5679                                 
                   37-        GRID    10      0       40.8591 .0      80.1909                                 
                   38-        GRID    11      0       43.6329 .0      78.7158                                 
                   39-        GRID    12      0       46.3536 .0      77.1453                                 
                   40-        GRID    13      0       49.0176 .0      75.4803                                 
                   41-        GRID    14      0       51.6222 .0      73.7235                                 
                   42-        MAT1    12      3.0E6           .1667           12.5 E-6.0              CMAT11  
                   43-        MOMENT  1       2       0       1.0     14.83917.0      -10.1998                
                   44-        MOMENT  1       3       0       1.0     14.79298.0      -20.3822                
                   45-        MOMENT  1       4       0       1.0     14.73849.0      -30.5275                
                   46-        MOMENT  1       5       0       1.0     14.73710.0      -40.6554                
                   47-        MOMENT  1       6       0       1.0     629.9624.0      -503.492                
1     SPHERICAL SHELL WITH TOROIDAL RING ELEMENT                            /    95 SUN SOLARIS NASTRAN    / MAY 17, 95 / PAGE     7
      NASTRAN DEMONSTRATION PROBLEM NO. D01-07-1A                                                                                   

      EXTERNAL PRESSURE LOADING                                                                                                     

                                                  S O R T E D   B U L K    D A T A    E C H O                                       
                     CARD                                                                                                           
                     COUNT        ---1--- +++2+++ ---3--- +++4+++ ---5--- +++6+++ ---7--- +++8+++ ---9--- +++10+++                  
                   48-        MOMENT  1       7       0       1.0     223.9160.0      -1180.98                
                   49-        MOMENT  1       8       0       1.0     217.7740.0      -1560.45                
                   50-        MOMENT  1       9       0       1.0     -1125.59.0      -950.370                
                   51-        MOMENT  1       10      0       1.0     13.35776.0      -132.642                
                   52-        MOMENT  1       11      0       1.0     13.01903.0      -141.715                
                   53-        MOMENT  1       12      0       1.0     12.64240.0      -150.533                
                   54-        MOMENT  1       13      0       1.0     12.29669.0      -159.092                
                   55-        PTORDRG 1       12      3.0     3.0                                             
                   56-        SPC     1       1       14      .0      14      134     .0                      
                              ENDDATA
0*** USER INFORMATION MESSAGE -  GRID-POINT RESEQUENCING PROCESSOR BANDIT IS NOT USED DUE TO
     SMALL PROBLEM SIZE
0          **NO ERRORS FOUND - EXECUTE NASTRAN PROGRAM**
0*** USER INFORMATION MESSAGE 238, TURN DIAG 38 ON FOR ADDITIONAL ELEMENT PROCESSING INFORMATION

1     SPHERICAL SHELL WITH TOROIDAL RING ELEMENT                            /    95 SUN SOLARIS NASTRAN    / MAY 17, 95 / PAGE     8
      NASTRAN DEMONSTRATION PROBLEM NO. D01-07-1A                                                                                   

      EXTERNAL PRESSURE LOADING                                                                                                     




0*** USER INFORMATION MESSAGE 3113,
     EMG MODULE PROCESSING DOUBLE PRECISION TORDRG   ELEMENTS (ELEMENT TYPE  38) STARTING WITH ID        1
0*** USER INFORMATION MESSAGE 3035
     FOR SUBCASE NUMBER     1, EPSILON SUB E =   1.2777657E-12
0*** SYSTEM WARNING MESSAGE 3022
+                                 (SEE PROG. MANUAL SEC. 4.9.7, OR USERS' MANUAL P. 6.5-3)
     DATA BLOCK ONRGY1   MAY BE REQUIRED AS INPUT AND IS NOT OUTPUT BY A PREVIOUS MODULE IN THE CURRENT DMAP ROUTE.
1     SPHERICAL SHELL WITH TOROIDAL RING ELEMENT                            /    95 SUN SOLARIS NASTRAN    / MAY 17, 95 / PAGE     9
      NASTRAN DEMONSTRATION PROBLEM NO. D01-07-1A                                                                                   
0     EXTERNAL PRESSURE LOADING                                                                                                     
 
                                             D I S P L A C E M E N T   V E C T O R
 
      POINT ID.   TYPE          T1             T2             T3             R1             R2             R3
             1      G      0.0            0.0           -5.466944E-04   0.0            1.683363E-06   2.264283E-07                  
             2      G     -1.379353E-05   0.0           -5.465159E-04   9.711449E-09   1.683092E-06  -2.154376E-08                  
             3      G     -2.758300E-05   0.0           -5.460528E-04  -4.874046E-08   1.682592E-06   4.688149E-08                  
             4      G     -4.132202E-05   0.0           -5.448287E-04  -2.965820E-07   1.676809E-06   1.172040E-07                  
             5      G     -5.488748E-05   0.0           -5.421351E-04  -8.169633E-07   1.656756E-06   2.187806E-07                  
             6      G     -6.804022E-05   0.0           -5.369930E-04  -1.700009E-06   1.611340E-06   3.477465E-07                  
             7      G     -9.602270E-05   0.0           -5.049501E-04  -5.982594E-06   1.304370E-06   7.566065E-07                  
             8      G     -1.071690E-04   0.0           -4.272170E-04  -1.345247E-05   4.936754E-07   1.104621E-06                  
             9      G     -8.639758E-05   0.0           -2.889577E-04  -2.183137E-05  -1.014970E-06   8.644736E-07                  
            10      G     -6.754949E-05   0.0           -2.194551E-04  -2.388999E-05  -1.779485E-06   3.991782E-07                  
            11      G     -4.435892E-05   0.0           -1.472862E-04  -2.399925E-05  -2.568128E-06  -3.909324E-07                  
            12      G     -2.046372E-05   0.0           -7.944898E-05  -2.101134E-05  -3.285147E-06  -1.583342E-06                  
            13      G     -2.309796E-06   0.0           -2.593311E-05  -1.352425E-05  -3.788745E-06  -3.284960E-06                  
            14      G      0.0            0.0            0.0            0.0           -3.883259E-06  -5.282909E-06                  
1     SPHERICAL SHELL WITH TOROIDAL RING ELEMENT                            /    95 SUN SOLARIS NASTRAN    / MAY 17, 95 / PAGE    10
      NASTRAN DEMONSTRATION PROBLEM NO. D01-07-1A                                                                                   
0     EXTERNAL PRESSURE LOADING                                                                                                     
 
                                                     L O A D   V E C T O R
 
      POINT ID.   TYPE          T1             T2             T3             R1             R2             R3
             1      G      0.0            0.0           -8.858850E+00   0.0            0.0            0.0                           
             2      G     -2.163810E+00   0.0           -6.196350E+01   1.483917E+01   0.0           -1.019980E+01                  
             3      G     -8.644210E+00   0.0           -1.236180E+02   1.479298E+01   0.0           -2.038220E+01                  
             4      G     -1.940630E+01   0.0           -1.846390E+02   1.473849E+01   0.0           -3.052750E+01                  
             5      G     -3.440360E+01   0.0           -2.447950E+02   1.473710E+01   0.0           -4.065540E+01                  
             6      G     -1.016690E+02   0.0           -5.765960E+02   6.299624E+02   0.0           -5.034920E+02                  
             7      G     -2.973930E+02   0.0           -1.109890E+03   2.239160E+02   0.0           -1.180980E+03                  
             8      G     -5.193090E+02   0.0           -1.426790E+03   2.177740E+02   0.0           -1.560450E+03                  
             9      G     -5.372460E+02   0.0           -1.153130E+03  -1.125590E+03   0.0           -9.503700E+02                  
            10      G     -3.661200E+02   0.0           -7.185550E+02   1.335776E+01   0.0           -1.326420E+02                  
            11      G     -4.175840E+02   0.0           -7.533520E+02   1.301903E+01   0.0           -1.417150E+02                  
            12      G     -4.712660E+02   0.0           -7.843180E+02   1.264240E+01   0.0           -1.505330E+02                  
            13      G     -5.268910E+02   0.0           -8.113400E+02   1.229669E+01   0.0           -1.590920E+02                  
1     SPHERICAL SHELL WITH TOROIDAL RING ELEMENT                            /    95 SUN SOLARIS NASTRAN    / MAY 17, 95 / PAGE    11
      NASTRAN DEMONSTRATION PROBLEM NO. D01-07-1A                                                                                   
0     EXTERNAL PRESSURE LOADING                                                                                                     
 
                       F O R C E S   F O R   T H E   T O R O I D A L   R I N G S     ( C T O R D R G )
     EL    CORNER         RADIAL        CIRCUMFERENTIAL       AXIAL             MOMENT         DIRECT STRAIN       CURVATURE
     ID     POINT           (X)             (THETA)            (Z)               (ZX)              (XI)             (XI,XI)
0       1     1       -1.435260E-02      0.0              -8.857550E+00      6.850548E-01     -7.417463E-04      1.385167E-03       
              2       -9.361709E+02      0.0               8.858372E+00     -1.194810E+01     -1.365885E-02     -2.249861E+00       
0       2     1        9.340080E+02      0.0              -7.081214E+01      2.678206E+01      1.373598E-02     -7.953564E+00       
              2       -1.870660E+03      0.0               7.082641E+01     -4.425937E+01      4.811107E-02     -8.135111E+00       
0       3     1        1.862018E+03      0.0              -1.944009E+02      5.895256E+01     -4.638583E-02     -1.225448E+01       
              2       -2.798947E+03      0.0               1.945020E+02     -1.013341E+02     -6.079648E-03     -1.307026E+01       
0       4     1        2.779536E+03      0.0              -3.791533E+02      1.160077E+02      9.682901E-03     -1.746239E+01       
              2       -3.715845E+03      0.0               3.793006E+02     -1.956308E+02     -3.433111E-01     -1.815808E+01       
0       5     1        3.681427E+03      0.0              -6.242156E+02      2.104531E+02      3.403968E-01     -2.250226E+01       
              2       -4.615107E+03      0.0               6.242530E+02     -3.389402E+02     -6.897379E-01     -2.322445E+01       
0       6     1        4.513437E+03      0.0              -1.200878E+03      9.688644E+02      6.852036E-01     -4.802863E+02       
              2       -6.800861E+03      0.0               1.202774E+03     -1.601000E+03     -2.833398E+00     -5.080294E+02       
0       7     1        6.503458E+03      0.0              -2.312679E+03      1.824949E+03      2.827059E+00     -6.729493E+02       
              2       -8.600890E+03      0.0               2.315741E+03     -2.658186E+03     -6.409254E-01     -7.000667E+02       
0       8     1        8.081584E+03      0.0              -3.742526E+03      2.875959E+03      6.302433E-01     -8.604033E+02       
              2       -9.747442E+03      0.0               3.742836E+03     -2.945964E+03      1.493594E+00     -8.867585E+02       
0       9     1        9.210227E+03      0.0              -4.895938E+03      1.820449E+03     -1.493172E+00     -6.358387E+01       
              2       -9.692967E+03      0.0               4.892215E+03     -1.112938E+03      8.562287E-01     -6.431381E+01       
0      10     1        9.326908E+03      0.0              -5.610593E+03      1.126212E+03     -8.530122E-01     -6.828882E+01       
              2       -9.685742E+03      0.0               5.602792E+03      3.262547E+02      1.366635E+00     -6.908867E+01       
0      11     1        9.268126E+03      0.0              -6.356183E+03     -3.135163E+02     -1.350971E+00     -7.259787E+01       
              2       -9.503368E+03      0.0               6.342287E+03      2.795578E+03      1.920020E+00     -7.216864E+01       
0      12     1        9.032036E+03      0.0              -7.126740E+03     -2.783069E+03     -1.911161E+00     -7.840787E+01       
              2       -9.162020E+03      0.0               7.104391E+03      6.593884E+03      2.235647E+00     -8.788574E+01       
0      13     1        8.635151E+03      0.0              -7.915670E+03     -6.581451E+03     -2.228176E+00     -7.119308E+01       
              2       -8.704317E+03      0.0               7.882500E+03      1.198971E+04      1.802444E-03     -1.855469E-02       
1     SPHERICAL SHELL WITH TOROIDAL RING ELEMENT                            /    95 SUN SOLARIS NASTRAN    / MAY 17, 95 / PAGE    12
      NASTRAN DEMONSTRATION PROBLEM NO. D01-07-1A                                                                                   
0     EXTERNAL PRESSURE LOADING                                                                                                     
 
           S T R E S S   R E S U L T A N T S   F O R   T H E   T O R O I D A L   R I N G S     ( C T O R D R G )
     EL   STRESS               MEMBRANE (FORCES)                          FLEXURE (MOMENTS)                       SHEAR
     ID    POINT        TANGENTIAL          CIRCUMFERENTIAL        TANGENTIAL           CIRCUMFERENTIAL          (FORCE)
0       1    1       -4.742393E+01           -4.742393E+01       -1.834143E+00            1.834143E+00        6.117731E+00          
             2       -4.741985E+01           -4.742053E+01        3.893908E-01            7.417586E-02       -2.767995E-01          
             3       -4.742413E+01           -4.742857E+01        1.531547E-01            4.638737E-02        1.319523E+00          
0       2    1       -4.741985E+01           -4.742789E+01        1.531532E-01            4.638781E-02       -3.576809E-01          
             2       -4.742702E+01           -4.743805E+01       -1.498061E-01           -2.513187E-02       -9.881045E-02          
             3       -4.742553E+01           -4.744564E+01       -3.344585E-01           -1.080277E-01       -2.839203E-01          
0       3    1       -4.743420E+01           -4.744713E+01       -3.344583E-01           -1.080281E-01       -1.403322E-01          
             2       -4.743338E+01           -4.744912E+01       -5.580543E-01           -2.167377E-01       -2.157153E-01          
             3       -4.743655E+01           -4.743897E+01       -8.500305E-01           -3.533323E-01       -2.438290E-01          
0       4    1       -4.744117E+01           -4.743970E+01       -8.500276E-01           -3.533307E-01       -2.582688E-01          
             2       -4.743185E+01           -4.740683E+01       -1.196292E+00           -5.151972E-01       -2.975522E-01          
             3       -4.743970E+01           -4.734747E+01       -1.593775E+00           -7.016712E-01       -3.418674E-01          
0       5    1       -4.742383E+01           -4.734471E+01       -1.593736E+00           -7.016601E-01       -3.391230E-01          
             2       -4.741095E+01           -4.724012E+01       -2.041596E+00           -9.122855E-01       -3.801277E-01          
             3       -4.740445E+01           -4.708471E+01       -2.538218E+00           -1.146203E+00       -4.187303E-01          
0       6    1       -4.741298E+01           -4.708613E+01       -2.538366E+00           -1.146230E+00       -4.175308E-01          
             2       -4.726017E+01           -4.634843E+01       -3.961301E+00           -1.822912E+00       -4.957582E-01          
             3       -4.701212E+01           -4.493718E+01       -5.540241E+00           -2.598110E+00       -5.311699E-01          
0       7    1       -4.701073E+01           -4.493687E+01       -5.540196E+00           -2.598095E+00       -5.247869E-01          
             2       -4.657161E+01           -4.256562E+01       -7.056335E+00           -3.404063E+00       -4.792132E-01          
             3       -4.586499E+01           -3.897964E+01       -8.144388E+00           -4.129645E+00       -3.072319E-01          
0       8    1       -4.586560E+01           -3.897993E+01       -8.144615E+00           -4.129735E+00       -2.964945E-01          
             2       -4.490353E+01           -3.402090E+01       -8.247053E+00           -4.608160E+00        6.129110E-02          
             3       -4.359391E+01           -2.771052E+01       -6.603844E+00           -4.612164E+00        6.679063E-01          
0       9    1       -4.359608E+01           -2.771079E+01       -6.604050E+00           -4.612195E+00        6.793578E-01          
             2       -4.296380E+01           -2.487673E+01       -5.239190E+00           -4.416682E+00        1.000867E+00          
             3       -4.229292E+01           -2.192929E+01       -3.375110E+00           -4.079192E+00        1.377905E+00          
0      10    1       -4.228968E+01           -2.192876E+01       -3.374427E+00           -4.079026E+00        1.380139E+00          
             2       -4.157248E+01           -1.892799E+01       -9.345999E-01           -3.576959E+00        1.806204E+00          
             3       -4.080384E+01           -1.595172E+01        2.156033E+00           -2.887666E+00        2.294774E+00          
0      11    1       -4.080479E+01           -1.595191E+01        2.157442E+00           -2.887537E+00        2.268575E+00          
             2       -4.001025E+01           -1.310438E+01        5.966252E+00           -1.989860E+00        2.828775E+00          
             3       -3.918151E+01           -1.050479E+01        1.054323E+01           -8.650403E-01        3.356083E+00          
1     SPHERICAL SHELL WITH TOROIDAL RING ELEMENT                            /    95 SUN SOLARIS NASTRAN    / MAY 17, 95 / PAGE    13
      NASTRAN DEMONSTRATION PROBLEM NO. D01-07-1A                                                                                   
0     EXTERNAL PRESSURE LOADING                                                                                                     
 
           S T R E S S   R E S U L T A N T S   F O R   T H E   T O R O I D A L   R I N G S     ( C T O R D R G )
     EL   STRESS               MEMBRANE (FORCES)                          FLEXURE (MOMENTS)                       SHEAR
     ID    POINT        TANGENTIAL          CIRCUMFERENTIAL        TANGENTIAL           CIRCUMFERENTIAL          (FORCE)
0      12    1       -3.918133E+01           -1.050476E+01        1.054335E+01           -8.650696E-01        3.556906E+00          
             2       -3.834824E+01           -8.305113E+00        1.600016E+01            5.156120E-01        3.985400E+00          
             3       -3.751252E+01           -6.677447E+00        2.254027E+01            2.195566E+00        5.073380E+00          
0      13    1       -3.751236E+01           -6.677407E+00        2.253946E+01            2.195416E+00        3.520725E+00          
             2       -3.669323E+01           -5.826451E+00        2.981250E+01            4.122759E+00        5.717581E+00          
             3       -3.594828E+01           -5.992583E+00        3.667900E+01            6.114406E+00        3.136902E+00          
1     SPHERICAL SHELL WITH TOROIDAL RING ELEMENT                            /    95 SUN SOLARIS NASTRAN    / MAY 17, 95 / PAGE    14
      NASTRAN DEMONSTRATION PROBLEM NO. D01-07-1A                                                                                   

      EXTERNAL PRESSURE LOADING                                                                                                     




0*** SYSTEM WARNING MESSAGE 3022
+                                 (SEE PROG. MANUAL SEC. 4.9.7, OR USERS' MANUAL P. 6.5-3)
     DATA BLOCK ONRGY1   MAY BE REQUIRED AS INPUT AND IS NOT OUTPUT BY A PREVIOUS MODULE IN THE CURRENT DMAP ROUTE.




                                        * * * END OF JOB * * *
1
 JOB TITLE =  SPHERICAL SHELL WITH TOROIDAL RING ELEMENT                         
 DATE:  5/17/95
 END TIME: 14:57:41
 TOTAL WALL CLOCK TIME      2 SEC.
 
