





                                  ****
                                *      *
                               *        *
                               *  N A S T R A N
                               *        *
                                *      *
                                  ****


                             SUN COMPUTER SYSTEMS    
                                SOLARIS VERSION

                          SYSTEM RELEASE -  1995 ED.

                                DISTRIBUTED BY

         COMPUTER SOFTWARE MANAGEMENT AND INFORMATION CENTER (COSMIC)
                 UNIVERSITY OF GEORGIA, ATHENS, GEORGIA 30602
                 PHONE: (706)542-3265      FAX: (706)542-4807
1                                                                           /    95 SUN SOLARIS NASTRAN    / MAY 17, 95 / PAGE     2
                                                                                                                                    
0                                                                                                                                   
                                                                                                         
                                                                                                         
                         INSTALLATION CENTER USER INFORMATION GIVEN IN THIS SECTION                      
                                                                                                         
                                     *********************************************                       
                                     *                                           *                       
                                     *  PLEASE READ THE COMMENT IN DEMO PROBLEM  *                       
                                     *  D01002A ABOUT SYSTEM TIMING CONSTANTS    *                       
                                     *                                           *                       
                                     *********************************************                       
                                                                                                         
                         ===X=    TOP OF PAGE REQUEST IF 'X' IS REPLACED BY '='                          
                                                                                                         
1                                                                           /    95 SUN SOLARIS NASTRAN    / MAY 17, 95 / PAGE     3
                                                                                                                                    
0                                                                                                                                   
0*** USER INFORMATION MESSAGE 225, GINO TIME CONSTANTS ARE BEING COMPUTED
     (SEE NASINFO FILE FOR ELIMINATION OF THESE COMPUTATIONS)
1                                                                           /    95 SUN SOLARIS NASTRAN    / MAY 17, 95 / PAGE     4
                                                                                                                                    
0        N A S T R A N    E X E C U T I V E    C O N T R O L    D E C K    E C H O                                                  
0                                                                                                                                   
                                                                                                                                    
                                                                                                                                    
     ID    D01122A,NASTRAN                                                           
     APP   HEAT                                                                      
     DIAG  14                                                                        
     SOL   1,0                                                                       
     TIME  10                                                                        
     CEND                                                                            


0*** USER INFORMATION MESSAGE, TURN DIAG 48 ON FOR NASTRAN RELEASE NEWS, DIAG DEFINITION, NEW DMAP
         MODULES AND NEW BULKDATA CARDS INFORMATION
1     LINEAR STEADY STATE CONDUCTION THROUGH A WASHER                       /    95 SUN SOLARIS NASTRAN    / MAY 17, 95 / PAGE     5
      NASTRAN DEMONSTRATION PROBLEM NO. D01-12-2A                                                                                   
0     RING ELEMENTS, FILM HEAT TRANSFER                                                                                             
0                                        C A S E    C O N T R O L   D E C K   E C H O                                               
                 CARD                                                                                                               
                 COUNT                                                                                                              
                  1      TITLE    = LINEAR STEADY STATE CONDUCTION THROUGH A WASHER                      
                  2      SUBTITLE = NASTRAN DEMONSTRATION PROBLEM NO. D01-12-2A                          
                  3      LABEL    = RING ELEMENTS, FILM HEAT TRANSFER                                    
                  4      OUTPUT                                                                          
                  5      OLOAD    = ALL                                                                  
                  6      SPCFORCE = ALL                                                                  
                  7      THERMAL (PRINT,PUNCH) = ALL                                                     
                  8      ELFORCE  = ALL                                                                  
                  9      SPC = 350                                                                       
                 10      BEGIN BULK                                                                      


                        (NO. OF UNSORTED BULK DATA CARDS READ =    48, INCLUDING   0 COMMENT CARDS)
0*** USER INFORMATION MESSAGE 207, BULK DATA DECK IS NOT SORTED. NASTRAN WILL RE-ORDER THE INPUT DECK.
1     LINEAR STEADY STATE CONDUCTION THROUGH A WASHER                       /    95 SUN SOLARIS NASTRAN    / MAY 17, 95 / PAGE     6
      NASTRAN DEMONSTRATION PROBLEM NO. D01-12-2A                                                                                   
0     RING ELEMENTS, FILM HEAT TRANSFER                                                                                             
0                                                 S O R T E D   B U L K    D A T A    E C H O                                       
                     CARD                                                                                                           
                     COUNT        ---1--- +++2+++ ---3--- +++4+++ ---5--- +++6+++ ---7--- +++8+++ ---9--- +++10+++                  
                    1-        CHBDY   14      100     REV     1       12                              +HBDY14 
                    2-        +HBDY14 23      23                                                              
                    3-        CTRAPRG 7       4       5       16      15      .0      200                     
                    4-        CTRAPRG 8       5       6       17      16      .0      200                     
                    5-        CTRAPRG 9       6       7       18      17      .0      200                     
                    6-        CTRAPRG 10      7       8       19      18      .0      200                     
                    7-        CTRAPRG 11      8       9       20      19      .0      200                     
                    8-        CTRAPRG 12      9       10      21      20      .0      200                     
                    9-        CTRAPRG 13      10      11      22      21      .0      200                     
                   10-        CTRIARG 1       1       13      12      -45.0   200                             
                   11-        CTRIARG 2       1       2       13      .0      200                             
                   12-        CTRIARG 3       2       14      13      -45.0   200                             
                   13-        CTRIARG 4       2       3       14      .0      200                             
                   14-        CTRIARG 5       3       15      14      -45.0   200                             
                   15-        CTRIARG 6       3       4       15      .0      200                             
                   16-        GRID    1               1.0     .0      .0                                      
                   17-        GRID    2               1.1     .0      .0                                      
                   18-        GRID    3               1.2     .0      .0                                      
                   19-        GRID    4               1.3     .0      .0                                      
                   20-        GRID    5               1.4     .0      .0                                      
                   21-        GRID    6               1.5     .0      .0                                      
                   22-        GRID    7               1.6     .0      .0                                      
                   23-        GRID    8               1.7     .0      .0                                      
                   24-        GRID    9               1.8     .0      .0                                      
                   25-        GRID    10              1.9     .0      .0                                      
                   26-        GRID    11              2.0     .0      .0                                      
                   27-        GRID    12              1.0     .0      .1                                      
                   28-        GRID    13              1.1     .0      .1                                      
                   29-        GRID    14              1.2     .0      .1                                      
                   30-        GRID    15              1.3     .0      .1                                      
                   31-        GRID    16              1.4     .0      .1                                      
                   32-        GRID    17              1.5     .0      .1                                      
                   33-        GRID    18              1.6     .0      .1                                      
                   34-        GRID    19              1.7     .0      .1                                      
                   35-        GRID    20              1.8     .0      .1                                      
                   36-        GRID    21              1.9     .0      .1                                      
                   37-        GRID    22              2.0     .0      .1                                      
                   38-        MAT4    200     1.0                                                             
                   39-        MAT4    300     1.0                                                             
                   40-        PHBDY   100     300                                                             
                   41-        SEQGP   12      1.1     13      2.1     14      3.1     15      4.1             
                   42-        SEQGP   16      5.1     17      6.1     18      7.1     19      8.1             
                   43-        SEQGP   20      9.1     21      10.1    22      11.1    23      1.0.5           
                   44-        SPC     352     23              488.5                                           
                   45-        SPC1    351     1       11      22                                              
                   46-        SPCADD  350     351     352                                                     
                   47-        SPOINT  23                                                                      
1     LINEAR STEADY STATE CONDUCTION THROUGH A WASHER                       /    95 SUN SOLARIS NASTRAN    / MAY 17, 95 / PAGE     7
      NASTRAN DEMONSTRATION PROBLEM NO. D01-12-2A                                                                                   

      RING ELEMENTS, FILM HEAT TRANSFER                                                                                             

                                                  S O R T E D   B U L K    D A T A    E C H O                                       
                     CARD                                                                                                           
                     COUNT        ---1--- +++2+++ ---3--- +++4+++ ---5--- +++6+++ ---7--- +++8+++ ---9--- +++10+++                  
                   48-        TEMPD   201     .0                                                              
                              ENDDATA
1     LINEAR STEADY STATE CONDUCTION THROUGH A WASHER                       /    95 SUN SOLARIS NASTRAN    / MAY 17, 95 / PAGE     8
      NASTRAN DEMONSTRATION PROBLEM NO. D01-12-2A                                                                                   
0     RING ELEMENTS, FILM HEAT TRANSFER                                                                                             
0         COSMIC / NASTRAN DMAP COMPILER - SOURCE LISTING                                                                           
                                                                                                                                    
                                                                                                                                    
0  OPTIONS IN EFFECT GO      ERR=2   LIST    NODECK  NOREF   NOOSCAR 
   -----------------


       1  BEGIN    HEAT 01 - STATIC HEAT TRANSFER ANALYSIS - APR. 1995 $          

       2  PRECHK   ALL $                                                          

       3  FILE     HQG=APPEND/HPGG=APPEND/HUGV=APPEND/HGM=SAVE/HKNN=SAVE $        

       4  PARAM    //*MPY*/CARDNO/0/0 $                                           

       5  GP1      GEOM1,GEOM2,/GPL,EQEXIN,GPDT,CSTM,BGPDT,HSIL/S,N,HLUSET/       
                   NOGPDT/MINUS1=-1 $                                             

       6  ANISOP   GEOM1,EPT,BGPDT,EQEXIN,MPT/MPTA/S,N,ISOP $                     

       7  EQUIV    MPTA,MPT/ISOP $                                                

       8  PLTTRAN  BGPDT,HSIL/BGPDP,HSIP/HLUSET/S,N,HLUSEP $                      

       9  GP2      GEOM2,EQEXIN/ECT $                                             

      10  PARAML   PCDB//*PRES*////JUMPPLOT $                                     

      11  PURGE    PLTSETX,PLTPAR,GPSETS,ELSETS/JUMPPLOT $                        

      12  COND     HP1,JUMPPLOT $                                                 

      13  PLTSET   PCDB,EQEXIN,ECT,EPT/PLTSETX,PLTPAR,GPSETS,ELSETS/S,N,HNSIL/    
                   S,N,JUMPPLOT $                                                 

      14  PRTMSG   PLTSETX// $                                                    

      15  PARAM    //*MPY*/PLTFLG/1/1 $                                           

      16  PARAM    //*MPY*/PFILE/0/0 $                                            

      17  COND     HP1,JUMPPLOT $                                                 

      18  PLOT     PLTPAR,GPSETS,ELSETS,CASECC,BGPDT,EQEXIN,HSIL,,ECT,,,,/PLOTX1/ 
                   HNSIL/HLUSET/S,N,JUMPPLOT/S,N,PLTFLG/S,N,PFILE $               

      19  PRTMSG   PLOTX1// $                                                     

      20  LABEL    HP1 $                                                          
1     LINEAR STEADY STATE CONDUCTION THROUGH A WASHER                       /    95 SUN SOLARIS NASTRAN    / MAY 17, 95 / PAGE     9
      NASTRAN DEMONSTRATION PROBLEM NO. D01-12-2A                                                                                   

      RING ELEMENTS, FILM HEAT TRANSFER                                                                                             

          COSMIC / NASTRAN DMAP COMPILER - SOURCE LISTING                                                                           
                                                                                                                                    
                                                                                                                                    

      21  GP3      GEOM3,EQEXIN,GEOM2/HSLT,GPTT/NOGRAV $                          

      22  TA1      ECT,EPT,BGPDT,HSIL,GPTT,CSTM,,EQEXIN/HEST,HGEI,HGPECT,,,,,/    
                   HLUSET/S,N,NOSIMP/1/S,N,NOGENL/GENEL $                         

      23  PARAM    //*AND*/NOELMT/NOGENL/NOSIMP $                                 

      24  COND     ERROR4,NOELMT $                                                

      25  PURGE    HKGGX/NOSIMP $                                                 

      26  COND     HLBL1,NOSIMP $                                                 

      27  PARAM    //*ADD*/HNOKGG/1/0 $                                           

      28  EMG      HEST,CSTM,MPT,DIT,GEOM2,/HKELM,HKDICT,,,,,/S,N,HNOKGG $        

      29  PURGE    HKGGX/HNOKGG $                                                 

      30  COND     HLBL1,HNOKGG $                                                 

      31  EMA      HGPECT,HKDICT,HKELM/HKGGX $                                    

      32  PURGE    HKDICT,HKELM/MINUS1 $                                          

      33  LABEL    HLBL1 $                                                        

      34  EQUIV    HKGGX,HKGG/NOGENL $                                            

      35  COND     HLBL11A,NOGENL $                                               

      36  SMA3     HGEI,HKGGX/HKGG/HLUSET/NOGENL/NOSIMP $                         

      37  LABEL    HLBL11A $                                                      

      38  GPSTGEN  HKGG,HSIL/GPST $                                               

      39  PARAM    //*MPY*/NSKIP/0/0 $                                            

      40  LABEL    HLBL11 $                                                       

      41  GP4      CASECC,GEOM4,EQEXIN,GPDT,BGPDT,CSTM,GPST/RG,YS,HUSET,          
                   HASET,OGPST/HLUSET/S,N,MPCF1/S,N,MPCF2/S,N,SINGLE/S,N,OMIT/    
                   S,N,REACT/S,N,NSKIP/S,N,HREPEAT/S,N,NOSET/S,N,NOL/S,N,NOA/     
                   C,Y,ASETOUT/C,Y,AUTOSPC $                                      
1     LINEAR STEADY STATE CONDUCTION THROUGH A WASHER                       /    95 SUN SOLARIS NASTRAN    / MAY 17, 95 / PAGE    10
      NASTRAN DEMONSTRATION PROBLEM NO. D01-12-2A                                                                                   

      RING ELEMENTS, FILM HEAT TRANSFER                                                                                             

          COSMIC / NASTRAN DMAP COMPILER - SOURCE LISTING                                                                           
                                                                                                                                    
                                                                                                                                    

      42  OFP      OGPST,,,,,//S,N,CARDNO $                                       

      43  COND     ERROR3,NOL $                                                   

      44  PARAM    //*AND*/NOSR/SINGLE/REACT $                                    

      45  PURGE    HKRR,HKLR,HQR,HDM/REACT/GM/MPCF1/HGO,HKOO,HLOO,HPO,HUOOV,      
                   HRUOV/OMIT/HPS,HKFS,HKSS/SINGLE/HQG/NOSR $                     

      46  EQUIV    HKGG,HKNN/MPCF1 $                                              

      47  COND     HLBL2,MPCF1 $                                                  

      48  MCE1     HUSET,RG/GM $                                                  

      49  MCE2     HUSET,GM,HKGG,,,/HKNN,,, $                                     

      50  LABEL    HLBL2 $                                                        

      51  EQUIV    HKNN,HKFF/SINGLE $                                             

      52  COND     HLBL3,SINGLE $                                                 

      53  SCE1     HUSET,HKNN,,,/HKFF,HKFS,HKSS,,, $                              

      54  LABEL    HLBL3 $                                                        

      55  EQUIV    HKFF,HKAA/OMIT $                                               

      56  COND     HLBL5,OMIT $                                                   

      57  SMP1     HUSET,HKFF,,,/HGO,HKAA,HKOO,HLOO,,,,, $                        

      58  LABEL    HLBL5 $                                                        

      59  EQUIV    HKAA,HKLL/REACT $                                              

      60  COND     HLBL6,REACT $                                                  

      61  RBMG1    HUSET,HKAA,/HKLL,HKLR,HKRR,,, $                                

      62  LABEL    HLBL6 $                                                        

      63  RBMG2    HKLL/HLLL $                                                    

      64  COND     HLBL7,REACT $                                                  
1     LINEAR STEADY STATE CONDUCTION THROUGH A WASHER                       /    95 SUN SOLARIS NASTRAN    / MAY 17, 95 / PAGE    11
      NASTRAN DEMONSTRATION PROBLEM NO. D01-12-2A                                                                                   

      RING ELEMENTS, FILM HEAT TRANSFER                                                                                             

          COSMIC / NASTRAN DMAP COMPILER - SOURCE LISTING                                                                           
                                                                                                                                    
                                                                                                                                    

      65  RBMG3    HLLL,HKLR,HKRR/HDM $                                           

      66  LABEL    HLBL7 $                                                        

      67  SSG1     HSLT,BGPDT,CSTM,HSIL,HEST,MPT,GPTT,EDT,,CASECC,DIT,/           
                   HPG,,,,SCR/HLUSET/NSKIP $                                      

      68  EQUIV    HPG,HPL/NOSET $                                                

      69  COND     HLBL10,NOSET $                                                 

      70  SSG2     HUSET,GM,YS,HKFS,HGO,HDM,HPG/HQR,HPO,HPS,HPL $                 

      71  LABEL    HLBL10 $                                                       

      72  SSG3     HLLL,HKLL,HPL,HLOO,HKOO,HPO/HULV,HUOOV,HRULV,HRUOV/OMIT/       
                   V,Y,IRES=-1/NSKIP/S,N,EPSI $                                   

      73  COND     HLBL9,IRES $                                                   

      74  MATGPR   GPL,HUSET,HSIL,HRULV//*L* $                                    

      75  MATGPR   GPL,HUSET,HSIL,HRUOV//*O* $                                    

      76  LABEL    HLBL9 $                                                        

      77  SDR1     HUSET,HPG,HULV,HUOOV,YS,HGO,GM,HPS,HKFS,HKSS,HQR/HUGV,HPGG,    
                   HQG/NSKIP/*HSTATICS* $                                         

      78  COND     HLBL8,HREPEAT $                                                

      79  REPT     HLBL11,100 $                                                   

      80  JUMP     ERROR1 $                                                       

      81  PARAM    //*NOT*/HTEST/HREPEAT $                                        

      82  COND     ERROR2,HTEST $                                                 

      83  LABEL    HLBL8 $                                                        

      84  SDR2     CASECC,CSTM,MPT,DIT,EQEXIN,HSIL,GPTT,EDT,BGPDP,,HQG,HUGV,      
                   HEST,,HPGG,/HOPG1,HOQG1,HOUGV1,HOES1,HOEF1,HPUGV1,,/           
                   *STATICS* $                                                    

      85  OFP      HOUGV1,HOPG1,HOQG1,HOEF1,,//S,N,CARDNO $                       
1     LINEAR STEADY STATE CONDUCTION THROUGH A WASHER                       /    95 SUN SOLARIS NASTRAN    / MAY 17, 95 / PAGE    12
      NASTRAN DEMONSTRATION PROBLEM NO. D01-12-2A                                                                                   

      RING ELEMENTS, FILM HEAT TRANSFER                                                                                             

          COSMIC / NASTRAN DMAP COMPILER - SOURCE LISTING                                                                           
                                                                                                                                    
                                                                                                                                    

      86  COND     HP2,JUMPPLOT $                                                 

      87  PLOT     PLTPAR,GPSETS,ELSETS,CASECC,BGPDT,EQEXIN,HSIP,HPUGV1,HOES1,    
                   HGPECT,,,/PLOTX2/HNSIL/HLUSEP/JUMPPLOT/PLTFLG/                 
                   S,N,PFILE $                                                    

      88  PRTMSG   PLOTX2// $                                                     

      89  LABEL    HP2 $                                                          

      90  JUMP     FINIS $                                                        

      91  LABEL    ERROR1 $                                                       

      92  PRTPARM  //-1/*HSTA* $                                                  

      93  LABEL    ERROR2 $                                                       

      94  PRTPARM  //-2/*HSTA* $                                                  

      95  LABEL    ERROR3 $                                                       

      96  PRTPARM  //-3/*HSTA* $                                                  

      97  LABEL    ERROR4 $                                                       

      98  PRTPARM  //-4/*HSTA* $                                                  

      99  LABEL    FINIS $                                                        

     100  PURGE    DUMMY/MINUS1 $                                                 

     101  END      $                                                              
0*** USER INFORMATION MESSAGE -  GRID-POINT RESEQUENCING PROCESSOR BANDIT IS NOT USED DUE TO
     THE PRESENCE OF SEQGP CARDS
0          **NO ERRORS FOUND - EXECUTE NASTRAN PROGRAM**
0*** USER INFORMATION MESSAGE 238, TURN DIAG 38 ON FOR ADDITIONAL ELEMENT PROCESSING INFORMATION

1     LINEAR STEADY STATE CONDUCTION THROUGH A WASHER                       /    95 SUN SOLARIS NASTRAN    / MAY 17, 95 / PAGE    13
      NASTRAN DEMONSTRATION PROBLEM NO. D01-12-2A                                                                                   

      RING ELEMENTS, FILM HEAT TRANSFER                                                                                             




0*** USER INFORMATION MESSAGE 3113,
     EMG MODULE PROCESSING DOUBLE PRECISION HBDY     ELEMENTS (ELEMENT TYPE  52) STARTING WITH ID       14
0*** USER INFORMATION MESSAGE 3113,
     EMG MODULE PROCESSING DOUBLE PRECISION TRAPRG   ELEMENTS (ELEMENT TYPE  37) STARTING WITH ID        7
0*** USER INFORMATION MESSAGE 3113,
     EMG MODULE PROCESSING DOUBLE PRECISION TRIARG   ELEMENTS (ELEMENT TYPE  36) STARTING WITH ID        1
0*** USER INFORMATION MESSAGE 3035
     FOR SUBCASE NUMBER     1, EPSILON SUB E =  -9.5293695E-16
1     LINEAR STEADY STATE CONDUCTION THROUGH A WASHER                       /    95 SUN SOLARIS NASTRAN    / MAY 17, 95 / PAGE    14
      NASTRAN DEMONSTRATION PROBLEM NO. D01-12-2A                                                                                   
0     RING ELEMENTS, FILM HEAT TRANSFER                                                                                             
 
                                              T E M P E R A T U R E   V E C T O R
 
      POINT ID.   TYPE      ID   VALUE     ID+1 VALUE    ID+2 VALUE     ID+3 VALUE     ID+4 VALUE     ID+5 VALUE
             1      S      1.997820E+02   1.724320E+02   1.473660E+02   1.243215E+02   1.029022E+02   8.299373E+01                  
             7      S      6.437527E+01   4.688614E+01   3.039657E+01   1.479833E+01   0.0            2.000835E+02                  
            13      S      1.724639E+02   1.473435E+02   1.242162E+02   1.028848E+02   8.299084E+01   6.437479E+01                  
            19      S      4.688606E+01   3.039655E+01   1.479832E+01   0.0            4.885000E+02                                 
1     LINEAR STEADY STATE CONDUCTION THROUGH A WASHER                       /    95 SUN SOLARIS NASTRAN    / MAY 17, 95 / PAGE    15
      NASTRAN DEMONSTRATION PROBLEM NO. D01-12-2A                                                                                   
0     RING ELEMENTS, FILM HEAT TRANSFER                                                                                             
 
                               F O R C E S   O F   S I N G L E - P O I N T   C O N S T R A I N T
 
      POINT ID.   TYPE      ID   VALUE     ID+1 VALUE    ID+2 VALUE     ID+3 VALUE     ID+4 VALUE     ID+5 VALUE
            11      S     -9.065610E+01                                                                                             
            22      S     -9.065608E+01   1.813122E+02                                                                              
1     LINEAR STEADY STATE CONDUCTION THROUGH A WASHER                       /    95 SUN SOLARIS NASTRAN    / MAY 17, 95 / PAGE    16
      NASTRAN DEMONSTRATION PROBLEM NO. D01-12-2A                                                                                   
0     RING ELEMENTS, FILM HEAT TRANSFER                                                                                             
 
                   F I N I T E   E L E M E N T   T E M P E R A T U R E   G R A D I E N T S   A N D   F L U X E S
 
 
    ELEMENT-ID   EL-TYPE        X-GRADIENT       Y-GRADIENT       Z-GRADIENT        X-FLUX           Y-FLUX           Z-FLUX
            14    HBDY        -2.885673E+02                                       1.813122E+02
1     LINEAR STEADY STATE CONDUCTION THROUGH A WASHER                       /    95 SUN SOLARIS NASTRAN    / MAY 17, 95 / PAGE    17
      NASTRAN DEMONSTRATION PROBLEM NO. D01-12-2A                                                                                   
0     RING ELEMENTS, FILM HEAT TRANSFER                                                                                             
 
                   F I N I T E   E L E M E N T   T E M P E R A T U R E   G R A D I E N T S   A N D   F L U X E S
 
    ELEMENT-ID   EL-TYPE        X-GRADIENT       Y-GRADIENT       Z-GRADIENT        X-FLUX           Y-FLUX           Z-FLUX
             7    TRAPRG      -2.137535E+02    -6.135254E-01                      2.137535E+02     6.135254E-01
             8    TRAPRG      -1.990119E+02    -1.015015E-01                      1.990119E+02     1.015015E-01
             9    TRAPRG      -1.861725E+02    -1.681519E-02                      1.861725E+02     1.681519E-02
            10    TRAPRG      -1.748893E+02    -2.807617E-03                      1.748893E+02     2.807617E-03
            11    TRAPRG      -1.648956E+02    -4.730225E-04                      1.648956E+02     4.730225E-04
            12    TRAPRG      -1.559823E+02    -7.629395E-05                      1.559823E+02     7.629395E-05
            13    TRAPRG      -1.479832E+02    -7.629395E-06                      1.479832E+02     7.629395E-06
1     LINEAR STEADY STATE CONDUCTION THROUGH A WASHER                       /    95 SUN SOLARIS NASTRAN    / MAY 17, 95 / PAGE    18
      NASTRAN DEMONSTRATION PROBLEM NO. D01-12-2A                                                                                   
0     RING ELEMENTS, FILM HEAT TRANSFER                                                                                             
 
                   F I N I T E   E L E M E N T   T E M P E R A T U R E   G R A D I E N T S   A N D   F L U X E S
 
    ELEMENT-ID   EL-TYPE        X-GRADIENT       Y-GRADIENT       Z-GRADIENT        X-FLUX           Y-FLUX           Z-FLUX
             1    TRIARG      -1.931675E+02     1.974312E+02                      1.931675E+02    -1.974312E+02
             2    TRIARG      -2.734998E+02     3.195801E-01                      2.734998E+02    -3.195801E-01
             3    TRIARG      -1.774022E+02     1.778540E+02                      1.774022E+02    -1.778540E+02
             4    TRIARG      -2.506598E+02    -2.246094E-01                      2.506598E+02     2.246094E-01
             5    TRIARG      -1.636938E+02     1.633762E+02                      1.636938E+02    -1.633762E+02
             6    TRIARG      -2.304453E+02    -1.052856E+00                      2.304453E+02     1.052856E+00




                                        * * * END OF JOB * * *
1
 JOB TITLE =  LINEAR STEADY STATE CONDUCTION THROUGH A WASHER                    
 DATE:  5/17/95
 END TIME: 15: 3:44
 TOTAL WALL CLOCK TIME      2 SEC.
 
