     NASTRAN FILES=PLT2                                                              






                                  ****
                                *      *
                               *        *
                               *  N A S T R A N
                               *        *
                                *      *
                                  ****


                             SUN COMPUTER SYSTEMS    
                                SOLARIS VERSION

                          SYSTEM RELEASE -  1995 ED.

                                DISTRIBUTED BY

         COMPUTER SOFTWARE MANAGEMENT AND INFORMATION CENTER (COSMIC)
                 UNIVERSITY OF GEORGIA, ATHENS, GEORGIA 30602
                 PHONE: (706)542-3265      FAX: (706)542-4807
1                                                                           /    95 SUN SOLARIS NASTRAN    / MAY 17, 95 / PAGE     2
                                                                                                                                    
0                                                                                                                                   
                                                                                                         
                                                                                                         
                         INSTALLATION CENTER USER INFORMATION GIVEN IN THIS SECTION                      
                                                                                                         
                                     *********************************************                       
                                     *                                           *                       
                                     *  PLEASE READ THE COMMENT IN DEMO PROBLEM  *                       
                                     *  D01002A ABOUT SYSTEM TIMING CONSTANTS    *                       
                                     *                                           *                       
                                     *********************************************                       
                                                                                                         
                         ===X=    TOP OF PAGE REQUEST IF 'X' IS REPLACED BY '='                          
                                                                                                         
1                                                                           /    95 SUN SOLARIS NASTRAN    / MAY 17, 95 / PAGE     3
                                                                                                                                    
0                                                                                                                                   
0*** USER INFORMATION MESSAGE 225, GINO TIME CONSTANTS ARE BEING COMPUTED
     (SEE NASINFO FILE FOR ELIMINATION OF THESE COMPUTATIONS)
1                                                                           /    95 SUN SOLARIS NASTRAN    / MAY 17, 95 / PAGE     4
                                                                                                                                    
0        N A S T R A N    E X E C U T I V E    C O N T R O L    D E C K    E C H O                                                  
0                                                                                                                                   
                                                                                                                                    
                                                                                                                                    
     ID    D01161A,NASTRAN                                                           
     APP   DISPLACEMENT                                                              
     SOL   1,0                                                                       
     TIME  30                                                                        
     CEND                                                                            


0*** USER INFORMATION MESSAGE, TURN DIAG 48 ON FOR NASTRAN RELEASE NEWS, DIAG DEFINITION, NEW DMAP
         MODULES AND NEW BULKDATA CARDS INFORMATION
1     FULLY STRESSED DESIGN OF A PLATE WITH A REINFORCED HOLE               /    95 SUN SOLARIS NASTRAN    / MAY 17, 95 / PAGE     5
      NASTRAN DEMONSTRATION PROBLEM NO. D01-16-1A                                                                                   
0     TEMPERATURE DEPENDENT MATERIALS.                                                                                              
0                                        C A S E    C O N T R O L   D E C K   E C H O                                               
                 CARD                                                                                                               
                 COUNT                                                                                                              
                  1      TITLE    = FULLY STRESSED DESIGN OF A PLATE WITH A REINFORCED HOLE              
                  2      SUBTITLE = NASTRAN DEMONSTRATION PROBLEM NO. D01-16-1A                          
                  3      LABEL    = TEMPERATURE DEPENDENT MATERIALS.                                     
                  4         TEMPERATURE(MATERIALS) = 3000                                                
                  5         SPC = 11                                                                     
                  6         DISPLACEMENT = ALL                                                           
                  7      SUBCASE 10                                                                      
                  8         LABEL = DESIGN CASE - UNIFORM END LOAD                                       
                  9         SET 111 = 1 THRU 105 EXCEPT 7                                                
                 10         STRESS  = 111                                                                
                 11         LOAD  = 10                                                                   
                 12      SUBCASE 12                                                                      
                 13         LABEL = CHECK CASE - CONTACT LOAD AT NOZZLE.                                 
                 14         LOAD  = 12                                                                   
                 15      PLOTID   = NASTRAN DEMONSTRATION PROBLEM NO. D01-16-1A                          
                 16      OUTPUT(PLOT)                                                                    
                 17      PLOTTER NASTPLT                                                                 
                 18        SET 1 = 1, 7, 38, 61, 69                                                      
                 19        SET 2 INCLUDE ELEMENTS QDMEM, TRMEM                                           
                 20              MAXIMUM DEFORMATION 0.8                                                 
                 21              AXES Z, X, Y                                                            
                 22              VIEW   0.0, 0.0, 0.0                                                    
                 23         FIND SCALE, ORIGIN 12, SET 1                                                 
                 24      PTITLE = ARCH MODEL                                                             
                 25      PLOT SET 2, ORIGIN 12 LABEL,SHRINK                                              
                 26      PTITLE = ELEMENT AND PROPERTY ID-S                                              
                 27      PLOT SET 2, ORIGIN 12, LABEL EPID                                               
                 28      PTITLE = DEFLECTION VECTORS FOR BOTH LOADS AND EACH ITERATION                   
                 29      PLOT STATIC DEFORMATION SET 2, ORIGIN 12, VECTOR RXY, SYMBOL 7                  
                 30         FIND SCALE, ORIGIN 12, SET 1, REGION  0.0, 0.0, 0.6, 1.0                     
                 31      PTITLE = ARCH MODEL REFLECTED ABOUT VERTICAL AXIS                               
                 32      PLOT SET 2, ORIGIN 12, SYMMETRY X, SET 2, ORIGIN 12                             
                 33      PTITLE = MAJOR PRINCIPAL STRESS CONTOURS FOR OPTIMIZED CASE                     
                 34      CONTOUR, MAJPRIN, EVEN 20, LOCAL                                                
                 35      PLOT STATIC DEFORMATION, CONTOUR 10, SET 2, ORIGIN 12, OUTLINE                  
                 36      BEGIN BULK                                                                      


                        (NO. OF UNSORTED BULK DATA CARDS READ =   173, INCLUDING   0 COMMENT CARDS)
0*** USER INFORMATION MESSAGE 207, BULK DATA DECK IS NOT SORTED. NASTRAN WILL RE-ORDER THE INPUT DECK.
1     FULLY STRESSED DESIGN OF A PLATE WITH A REINFORCED HOLE               /    95 SUN SOLARIS NASTRAN    / MAY 17, 95 / PAGE     6
      NASTRAN DEMONSTRATION PROBLEM NO. D01-16-1A                                                                                   
0     TEMPERATURE DEPENDENT MATERIALS.                                                                                              
0                                                 S O R T E D   B U L K    D A T A    E C H O                                       
                     CARD                                                                                                           
                     COUNT        ---1--- +++2+++ ---3--- +++4+++ ---5--- +++6+++ ---7--- +++8+++ ---9--- +++10+++                  
                    1-        CQDMEM  1               11      13      3       1                               
                    2-        CQDMEM  3               13      15      5       3                               
                    3-        CQDMEM  5       15      15      17      7       5                               
                    4-        CQDMEM  7       17      17      19      9       7                               
                    5-        CQDMEM  13              23      25      15      13                              
                    6-        CQDMEM  15              25      27      17      15                              
                    7-        CQDMEM  17              27      29      19      17                              
                    8-        CQDMEM  31              41      43      33      31                              
                    9-        CQDMEM  41              51      53      43      41                              
                   10-        CQDMEM  51              61      63      53      51                              
                   11-        CQDMEM  61              71      73      63      61                              
                   12-        CROD    101             48      49      102     102     49      59              
                   13-        CROD    103             59      69      104     104     69      78              
                   14-        CROD    105             78      79                                              
                   15-        CTRMEM  11              13      11      21                                      
                   16-        CTRMEM  12              21      23      13                                      
                   17-        CTRMEM  21              31      33      21                                      
                   18-        CTRMEM  22              23      21      33                                      
                   19-        CTRMEM  23              33      35      23                                      
                   20-        CTRMEM  24              25      23      35                                      
                   21-        CTRMEM  25              35      37      25                                      
                   22-        CTRMEM  26              27      25      37                                      
                   23-        CTRMEM  27              37      38      27                                      
                   24-        CTRMEM  28              38      39      27                                      
                   25-        CTRMEM  29              29      27      39                                      
                   26-        CTRMEM  32              35      33      43                                      
                   27-        CTRMEM  33              43      45      35                                      
                   28-        CTRMEM  34              37      35      45                                      
                   29-        CTRMEM  35              45      47      37                                      
                   30-        CTRMEM  36              47      38      37                                      
                   31-        CTRMEM  37              47      49      38                                      
                   32-        CTRMEM  38              49      48      38                                      
                   33-        CTRMEM  39              38      48      39                                      
                   34-        CTRMEM  42              53      55      43                                      
                   35-        CTRMEM  43              45      43      55                                      
                   36-        CTRMEM  44              55      57      45                                      
                   37-        CTRMEM  45              47      45      57                                      
                   38-        CTRMEM  46              57      59      47                                      
                   39-        CTRMEM  47              59      49      47                                      
                   40-        CTRMEM  52              63      65      53                                      
                   41-        CTRMEM  53              55      53      65                                      
                   42-        CTRMEM  54              65      67      55                                      
                   43-        CTRMEM  55              57      55      67                                      
                   44-        CTRMEM  57              67      69      57                                      
                   45-        CTRMEM  59              59      57      69                                      
                   46-        CTRMEM  62              65      63      73                                      
                   47-        CTRMEM  63              73      75      65                                      
1     FULLY STRESSED DESIGN OF A PLATE WITH A REINFORCED HOLE               /    95 SUN SOLARIS NASTRAN    / MAY 17, 95 / PAGE     7
      NASTRAN DEMONSTRATION PROBLEM NO. D01-16-1A                                                                                   

      TEMPERATURE DEPENDENT MATERIALS.                                                                                              

                                                  S O R T E D   B U L K    D A T A    E C H O                                       
                     CARD                                                                                                           
                     COUNT        ---1--- +++2+++ ---3--- +++4+++ ---5--- +++6+++ ---7--- +++8+++ ---9--- +++10+++                  
                   48-        CTRMEM  64              67      65      75                                      
                   49-        CTRMEM  65              75      77      67                                      
                   50-        CTRMEM  67              69      67      78                                      
                   51-        CTRMEM  68              67      77      78      90.0                            
                   52-        CTRMEM  69              77      79      78                                      
                   53-        FORCE   10      1               .3125E5 .0      1.0     .0                      
                   54-        FORCE   10      3               .625E5  .0      1.0     .0                      
                   55-        FORCE   10      5               .625E5  .0      1.0     .0                      
                   56-        FORCE   10      7               .625E5  .0      1.0     .0                      
                   57-        FORCE   10      9               .3125E5 .0      1.0     .0                      
                   58-        FORCE   12      69              100.+1  -1.0                                    
                   59-        FORCE   12      78              200.+1  -1.0                                    
                   60-        FORCE   12      79              100.+1  -1.0                                    
                   61-        GRDSET                                                  3456                    
                   62-        GRID    1               -10.    15.                                             
                   63-        GRID    3               -7.5    15.                                             
                   64-        GRID    5               -5.     15.                                             
                   65-        GRID    7               -2.5    15.                                             
                   66-        GRID    9               .0      15.                                             
                   67-        GRID    11              -10.    12.                                             
                   68-        GRID    13              -7.5    12.                                             
                   69-        GRID    15              -5.     12.                                             
                   70-        GRID    17              -2.5    12.                                             
                   71-        GRID    19              .0      12.                                             
                   72-        GRID    21              -10.    9.                                              
                   73-        GRID    23              -7.5    9.                                              
                   74-        GRID    25              -5.     9.                                              
                   75-        GRID    27              -2.5    9.                                              
                   76-        GRID    29              .0      9.                                              
                   77-        GRID    31              -10.    7.25                                            
                   78-        GRID    33              -8.5    7.25                                            
                   79-        GRID    35              -6.     7.25                                            
                   80-        GRID    37              -4.     7.25                                            
                   81-        GRID    38              -2.     6.5                                             
                   82-        GRID    39              .0      7.25                                            
                   83-        GRID    41              -10.    5.25                                            
                   84-        GRID    43              -8.5    5.25                                            
                   85-        GRID    45              -6.     5.25                                            
                   86-        GRID    47              -4.     5.5                                             
                   87-        GRID    48              .0      5.                                              
                   88-        GRID    49              -2.     4.582576                                        
                   89-        GRID    51              -10.    3.5                                             
                   90-        GRID    53              -8.5    3.5                                             
                   91-        GRID    55              -6.5    3.5                                             
                   92-        GRID    57              -5.     3.75                                            
                   93-        GRID    59              -3.5707 3.5                                             
                   94-        GRID    61              -10.    1.75                                            
1     FULLY STRESSED DESIGN OF A PLATE WITH A REINFORCED HOLE               /    95 SUN SOLARIS NASTRAN    / MAY 17, 95 / PAGE     8
      NASTRAN DEMONSTRATION PROBLEM NO. D01-16-1A                                                                                   

      TEMPERATURE DEPENDENT MATERIALS.                                                                                              

                                                  S O R T E D   B U L K    D A T A    E C H O                                       
                     CARD                                                                                                           
                     COUNT        ---1--- +++2+++ ---3--- +++4+++ ---5--- +++6+++ ---7--- +++8+++ ---9--- +++10+++                  
                   95-        GRID    63              -8.5    1.75                                            
                   96-        GRID    65              -7.     1.75                                            
                   97-        GRID    67              -5.75   1.75                                            
                   98-        GRID    69              -4.4651 2.25                                            
                   99-        GRID    71              -10.    .0                                              
                  100-        GRID    73              -8.5    .0                                              
                  101-        GRID    75              -7.     .0                                              
                  102-        GRID    77              -5.75   .0                                              
                  103-        GRID    78              -4.899  1.                                              
                  104-        GRID    79              -5.     .0                                              
                  105-        MAT1    1       30.E06          .3      .283            70.0            +CONST  
                  106-        +CONST                  12.5E3                                                  
                  107-        MAT1    2       30.+6           .3      .283            70.             +TDEP   
                  108-        +TDEP                   1.E3                                                    
                  109-        MAT1    3       30.E06                  .283            70.             +MATROD 
                  110-        +MATROD 25.E3   25.E3                                                           
                  111-        MATT1   2                                                               +MATT1  
                  112-        +MATT1                  222                                                     
                  113-        PARAM   GRDPNT  0                                                               
                  114-        PLIMIT  QDMEM   .2986858        1       THRU    61                      FSD     
                  115-        PLIMIT  TRMEM   .2986858        11      THRU    69                      FSD     
                  116-        POPT    5       .04     .95     2       YES                             FSD     
                  117-        PQDMEM  1       1       3.348                                                   
                  118-        PQDMEM  3       1       3.348                                                   
                  119-        PQDMEM  13      1       3.348                                                   
                  120-        PQDMEM  15      1       3.348                                                   
                  121-        PQDMEM  17      1       3.348                                                   
                  122-        PQDMEM  31      1       3.348                                                   
                  123-        PQDMEM  41      1       3.348                                                   
                  124-        PQDMEM  51      1       3.348                                                   
                  125-        PQDMEM  61      1       3.348                                                   
                  126-        PROD    101     3       1.674                                                   
                  127-        PROD    102     3       1.674                                                   
                  128-        PROD    103     3       1.674                                                   
                  129-        PROD    104     3       1.674                                                   
                  130-        PROD    105     3       1.674                                                   
                  131-        PTRMEM  11      1       3.348                                                   
                  132-        PTRMEM  12      1       3.348                                                   
                  133-        PTRMEM  21      1       3.348                                                   
                  134-        PTRMEM  22      1       3.348                                                   
                  135-        PTRMEM  23      1       3.348                                                   
                  136-        PTRMEM  24      1       3.348                                                   
                  137-        PTRMEM  25      1       3.348                                                   
                  138-        PTRMEM  26      1       3.348                                                   
                  139-        PTRMEM  27      1       3.348                                                   
                  140-        PTRMEM  28      1       3.348                                                   
                  141-        PTRMEM  29      1       3.348                                                   
1     FULLY STRESSED DESIGN OF A PLATE WITH A REINFORCED HOLE               /    95 SUN SOLARIS NASTRAN    / MAY 17, 95 / PAGE     9
      NASTRAN DEMONSTRATION PROBLEM NO. D01-16-1A                                                                                   

      TEMPERATURE DEPENDENT MATERIALS.                                                                                              

                                                  S O R T E D   B U L K    D A T A    E C H O                                       
                     CARD                                                                                                           
                     COUNT        ---1--- +++2+++ ---3--- +++4+++ ---5--- +++6+++ ---7--- +++8+++ ---9--- +++10+++                  
                  142-        PTRMEM  32      1       3.348                                                   
                  143-        PTRMEM  33      1       3.348                                                   
                  144-        PTRMEM  34      1       3.348                                                   
                  145-        PTRMEM  35      1       3.348                                                   
                  146-        PTRMEM  36      1       3.348                                                   
                  147-        PTRMEM  37      2       3.348                                                   
                  148-        PTRMEM  38      2       3.348                                                   
                  149-        PTRMEM  39      2       3.348                                                   
                  150-        PTRMEM  42      1       3.348                                                   
                  151-        PTRMEM  43      1       3.348                                                   
                  152-        PTRMEM  44      1       3.348                                                   
                  153-        PTRMEM  45      1       3.348                                                   
                  154-        PTRMEM  46      2       3.348                                                   
                  155-        PTRMEM  47      2       3.348                                                   
                  156-        PTRMEM  52      1       3.348                                                   
                  157-        PTRMEM  53      1       3.348                                                   
                  158-        PTRMEM  54      1       3.348                                                   
                  159-        PTRMEM  55      1       3.348                                                   
                  160-        PTRMEM  57      2       3.348                                                   
                  161-        PTRMEM  59      2       3.348                                                   
                  162-        PTRMEM  62      1       3.348                                                   
                  163-        PTRMEM  63      1       3.348                                                   
                  164-        PTRMEM  64      1       3.348                                                   
                  165-        PTRMEM  65      1       3.348                                                   
                  166-        PTRMEM  67      2       3.348                                                   
                  167-        PTRMEM  68      2       3.348                                                   
                  168-        PTRMEM  69      2       3.348                                                   
                  169-        SPC1    11      1       9       19      29      39      48                      
                  170-        SPC1    11      2       71      73      75      77      79                      
                  171-        TABLEM1 222                                                             +TAB-M1 
                  172-        +TAB-M1 1.      12.5E3  10.     12.5E3  ENDT                                    
                  173-        TEMPD   3000    80.                                                             
                              ENDDATA
0*** USER WARNING MESSAGE 2251, TWO OF THE E, G AND NU ON MAT1 CARD        3 ARE ZEROS OR BLANKS.
     POTENTIAL ERROR MAY OCCUR LATER
1     FULLY STRESSED DESIGN OF A PLATE WITH A REINFORCED HOLE               /    95 SUN SOLARIS NASTRAN    / MAY 17, 95 / PAGE    10
      NASTRAN DEMONSTRATION PROBLEM NO. D01-16-1A                                                                                   
0     TEMPERATURE DEPENDENT MATERIALS.                                                                                              
0*** USER INFORMATION MESSAGES FROM RESEQUENCING PROCESSOR - BANDIT     (CRI= 1,  MTH= 3,  MPC= 0,  DEP=-1,  PCH=-1)

                               BEFORE RESEQUENCING - - -
                                        BANDWIDTH            8
                                        PROFILE            270
                                        MAX WAVEFRONT        8
                                        AVG WAVEFRONT    6.279
                                        RMS WAVEFRONT    6.484
                                        RMS BANDWIDTH    6.541

                               AFTER RESEQUENCING BY GIBBS-POOLE-STOCKMEYER (GPS) ALGORITHM - - -
                                        BANDWIDTH            9
                                        PROFILE            264
                                        MAX WAVEFRONT        9
                                        AVG WAVEFRONT    6.140
                                        RMS WAVEFRONT    6.354
                                        RMS BANDWIDTH    6.534


                                                     *** BANDIT SUMMARY ***

                                                                        BEFORE     AFTER
                                        BANDWIDTH (B)                        8         9
                                        PROFILE (P)                        270       264
                                        MAXIMUM WAVEFRONT (C-MAX)            8         9
                                        AVERAGE WAVEFRONT (C-AVG)        6.279     6.140
                                        RMS WAVEFRONT (C-RMS)            6.484     6.354
                                        RMS BANDWITCH (B-RMS)            6.541     6.534
                                        NUMBER OF GRID POINTS (N)                     43
                                        NUMBER OF ELEMENTS (NON-RIGID)                54
                                        NUMBER OF RIGID ELEMENTS PROCESSED*            0
                                        NUMBER OF MPC  EQUATIONS PROCESSED*            0
                                        NUMBER OF COMPONENTS                           1
                                        MAXIMUM NODAL DEGREE                           8
                                        MINIMUM NODAL DEGREE                           2
                                        NUMBER OF UNIQUE EDGES                       113
                                        MATRIX DENSITY, PERCENT                   14.548
                                        NUMBER OF POINTS OF ZERO DEGREE                0
                                        BANDIT OPEN CORE                         1998969
                                        CRITERION*                         RMS WAVEFRONT
                                        METHOD USED*                                 GPS
                                        NO. OF SEQGP CARDS GENERATED                  11

                               (* THESE DEFAULT OPTIONS CAN BE OVERRIDDEN BY THE NASTRAN CARD)
1     FULLY STRESSED DESIGN OF A PLATE WITH A REINFORCED HOLE               /    95 SUN SOLARIS NASTRAN    / MAY 17, 95 / PAGE    11
      NASTRAN DEMONSTRATION PROBLEM NO. D01-16-1A                                                                                   
0     TEMPERATURE DEPENDENT MATERIALS.                                                                                              


                                   S Y S T E M  G E N E R A T E D  S E Q G P  C A R D S

                         SEQGP          1      31       3      37       5      41       7      43
                         SEQGP          9      42      11      30      13      36      15      40
                         SEQGP         17      39      19      38      21      29      23      34
                         SEQGP         25      33      27      32      29      35      31      23
                         SEQGP         33      27      35      26      37      25      38      24
                         SEQGP         39      28      41      21      43      20      45      19
                         SEQGP         47      18      48      22      49      17      51      16
                         SEQGP         53      15      55      14      57      13      59      12
                         SEQGP         61      10      63      11      65       9      67       8
                         SEQGP         69       7      71       6      73       5      75       4
                         SEQGP         77       3      78       2      79       1
0         **NO ERRORS FOUND - EXECUTE NASTRAN PROGRAM**
0*** USER INFORMATION MESSAGE, PLOT FILE GOES TO PLT2
1     FULLY STRESSED DESIGN OF A PLATE WITH A REINFORCED HOLE               /    95 SUN SOLARIS NASTRAN    / MAY 17, 95 / PAGE    12
      NASTRAN DEMONSTRATION PROBLEM NO. D01-16-1A                                                                                   
0     TEMPERATURE DEPENDENT MATERIALS.                                                                                              
                                                  MESSAGES FROM THE PLOT MODULE                                                   





 P L O T T E R    D A T A                                                                                                           
                                                                                                                                    
          THE FOLLOWING PLOTS ARE FOR A NASTPLT MICROFILM PLOTTER WITHOUT TYPING CAPABILITY                                         
                                                                                                                                    
          AN END-OF-FILE MARK FOLLOWS THE LAST PLOT                                                                                 
                                                                                                                                    
          THE FIRST COMMAND FOR EACH PLOT CONTAINS THE PLOT NUMBER                                                                  
                                                                                                                                    
          CSCALE =  1.00                                                                                                            
                                                                                                                                    
          THE FOLLOWING PLOTS ARE REQUESTED ON PAPER ONLY                                                                           
                                                                                                                                    




 E N G I N E E R I N G    D A T A                                                                                                   
                                                                                                                                    
          ORTHOGRAPHIC PROJECTION                                                                                                   
          ROTATIONS (DEGREES) - GAMMA =   0.00, BETA =   0.00, ALPHA =   0.00,  AXES = +Z,+X,+Y, SYMMETRIC                          
          SCALE (OBJECT-TO-PLOT SIZE) = 3.569302E-01                                                                                
                                                                                                                                    
          ORIGIN      12   -   X0 = -5.038315E+00, Y0 = -0.932505E+00     (INCHES)                                                  




                                                  PLOT MODULE MESSAGES CONTINUE                                                     
                                                                                                                                    
                                                 PLOT        1  UNDEFORMED SHAPE                                                    
                                                 ORIGIN     12  USED IN THIS PLOT                                                   
1     FULLY STRESSED DESIGN OF A PLATE WITH A REINFORCED HOLE               /    95 SUN SOLARIS NASTRAN    / MAY 17, 95 / PAGE    13
      NASTRAN DEMONSTRATION PROBLEM NO. D01-16-1A                                                                                   
0     TEMPERATURE DEPENDENT MATERIALS.                                                                                              
                                                  MESSAGES FROM THE PLOT MODULE                                                   





 P L O T T E R    D A T A                                                                                                           
                                                                                                                                    
          THE FOLLOWING PLOTS ARE FOR A NASTPLT MICROFILM PLOTTER WITHOUT TYPING CAPABILITY                                         
                                                                                                                                    
          AN END-OF-FILE MARK FOLLOWS THE LAST PLOT                                                                                 
                                                                                                                                    
          THE FIRST COMMAND FOR EACH PLOT CONTAINS THE PLOT NUMBER                                                                  
                                                                                                                                    
          CSCALE =  1.00                                                                                                            
                                                                                                                                    
          THE FOLLOWING PLOTS ARE REQUESTED ON PAPER ONLY                                                                           
                                                                                                                                    




 E N G I N E E R I N G    D A T A                                                                                                   
                                                                                                                                    
          ORTHOGRAPHIC PROJECTION                                                                                                   
          ROTATIONS (DEGREES) - GAMMA =   0.00, BETA =   0.00, ALPHA =   0.00,  AXES = +Z,+X,+Y, SYMMETRIC                          
          SCALE (OBJECT-TO-PLOT SIZE) = 3.569302E-01                                                                                
                                                                                                                                    
          ORIGIN      12   -   X0 = -5.038315E+00, Y0 = -0.932505E+00     (INCHES)                                                  




                                                  PLOT MODULE MESSAGES CONTINUE                                                     
                                                                                                                                    
                                                 PLOT        2  UNDEFORMED SHAPE                                                    
                                                 ORIGIN     12  USED IN THIS PLOT                                                   
1     FULLY STRESSED DESIGN OF A PLATE WITH A REINFORCED HOLE               /    95 SUN SOLARIS NASTRAN    / MAY 17, 95 / PAGE    14
      NASTRAN DEMONSTRATION PROBLEM NO. D01-16-1A                                                                                   
0     TEMPERATURE DEPENDENT MATERIALS.                                                                                              
                                                  MESSAGES FROM THE PLOT MODULE                                                   





 P L O T T E R    D A T A                                                                                                           
                                                                                                                                    
          THE FOLLOWING PLOTS ARE FOR A NASTPLT MICROFILM PLOTTER WITHOUT TYPING CAPABILITY                                         
                                                                                                                                    
          AN END-OF-FILE MARK FOLLOWS THE LAST PLOT                                                                                 
                                                                                                                                    
          THE FIRST COMMAND FOR EACH PLOT CONTAINS THE PLOT NUMBER                                                                  
                                                                                                                                    
          CSCALE =  1.00                                                                                                            
                                                                                                                                    
          THE FOLLOWING PLOTS ARE REQUESTED ON PAPER ONLY                                                                           
                                                                                                                                    




 E N G I N E E R I N G    D A T A                                                                                                   
                                                                                                                                    
          ORTHOGRAPHIC PROJECTION                                                                                                   
          ROTATIONS (DEGREES) - GAMMA =   0.00, BETA =   0.00, ALPHA =   0.00,  AXES = +Z,+X,+Y, SYMMETRIC                          
          SCALE (OBJECT-TO-PLOT SIZE) = 2.920009E-01                                                                                
                                                                                                                                    
          ORIGIN      12   -   X0 = -3.324618E+00, Y0 = -0.141947E+01     (INCHES)                                                  




                                                  PLOT MODULE MESSAGES CONTINUE                                                     
                                                                                                                                    
                                                 PLOT        3  UNDEFORMED SHAPE                                                    
                                                 ORIGIN     12  USED IN THIS PLOT                                                   
0*** USER INFORMATION MESSAGE 238, TURN DIAG 38 ON FOR ADDITIONAL ELEMENT PROCESSING INFORMATION

1     FULLY STRESSED DESIGN OF A PLATE WITH A REINFORCED HOLE               /    95 SUN SOLARIS NASTRAN    / MAY 17, 95 / PAGE    15
      NASTRAN DEMONSTRATION PROBLEM NO. D01-16-1A                                                                                   

      TEMPERATURE DEPENDENT MATERIALS.                                                                                              




0*** USER INFORMATION MESSAGE 3113,
     EMG MODULE PROCESSING DOUBLE PRECISION QDMEM    ELEMENTS (ELEMENT TYPE  16) STARTING WITH ID        1
0*** USER INFORMATION MESSAGE 3113,
     EMG MODULE PROCESSING DOUBLE PRECISION ROD      ELEMENTS (ELEMENT TYPE   1) STARTING WITH ID      101
0*** USER INFORMATION MESSAGE 3113,
     EMG MODULE PROCESSING DOUBLE PRECISION TRMEM    ELEMENTS (ELEMENT TYPE   9) STARTING WITH ID       11
0*** USER WARNING MESSAGE 3041
0EXTERNAL GRID POINT        0 DOES NOT EXIST OR IS NOT A GEOMETRIC GRID POINT.
     THE BASIC ORIGIN WILL BE USED.
1     FULLY STRESSED DESIGN OF A PLATE WITH A REINFORCED HOLE               /    95 SUN SOLARIS NASTRAN    / MAY 17, 95 / PAGE    16
      NASTRAN DEMONSTRATION PROBLEM NO. D01-16-1A                                                                                   
0     TEMPERATURE DEPENDENT MATERIALS.                                                                                              
 
 
                           O U T P U T   F R O M   G R I D   P O I N T   W E I G H T   G E N E R A T O R
0                                                     REFERENCE POINT =        0
 
 
                                     MO - RIGID BODY MASS MATRIX IN BASIC COORDINATE SYSTEM
                ***                                                                                             ***
                *  1.27579471D+02  0.00000000D+00  0.00000000D+00  0.00000000D+00  0.00000000D+00 -1.03942636D+03 *
                *  0.00000000D+00  1.27579471D+02  0.00000000D+00  0.00000000D+00  0.00000000D+00 -6.83771390D+02 *
                *  0.00000000D+00  0.00000000D+00  1.27579471D+02  1.03942636D+03  6.83771390D+02  0.00000000D+00 *
                *  0.00000000D+00  0.00000000D+00  1.03942636D+03  1.07163364D+04  5.28215763D+03  0.00000000D+00 *
                *  0.00000000D+00  0.00000000D+00  6.83771390D+02  5.28215763D+03  4.76943701D+03  0.00000000D+00 *
                * -1.03942636D+03 -6.83771390D+02  0.00000000D+00  0.00000000D+00  0.00000000D+00  1.54857734D+04 *
                ***                                                                                             ***
                                        S - TRANSFORMATION MATRIX FOR SCALAR MASS PARTITION
                                        ***                                             ***
                                        *  1.00000000D+00  0.00000000D+00  0.00000000D+00 *
                                        *  0.00000000D+00  1.00000000D+00  0.00000000D+00 *
                                        *  0.00000000D+00  0.00000000D+00  1.00000000D+00 *
                                        ***                                             ***
                         DIRECTION
                    MASS AXIS SYSTEM (S)       MASS                 X-C.G.           Y-C.G.           Z-C.G.
                            X            1.275794714D+02      0.000000000D+00  8.147285329D+00  0.000000000D+00
                            Y            1.275794714D+02     -5.359572216D+00  0.000000000D+00  0.000000000D+00
                            Z            1.275794714D+02     -5.359572216D+00  8.147285329D+00  0.000000000D+00

                                                 I(S) - INERTIAS RELATIVE TO C.G. 
                                      ***                                                 ***
                                      *  2.247833289D+03  2.887229808D+02  0.000000000D+00  *
                                      *  2.887229808D+02  1.104714865D+03  0.000000000D+00  *
                                      *  0.000000000D+00  0.000000000D+00  3.352548155D+03  *
                                      ***                                                 ***
                                                      I(Q) - PRINCIPAL INERTIAS
                                      ***                                                 ***
                                      *  1.035929723D+03                                    *
                                      *                   2.316618432D+03                   *
                                      *                                    3.352548155D+03  *
                                      ***                                                 ***
                                            Q - TRANSFORMATION MATRIX - I(Q) = QT*I(S)*Q
                                      ***                                                 ***
                                      *  2.317530886D-01  9.727746429D-01  0.000000000D+00  *
                                      * -9.727746429D-01  2.317530886D-01  0.000000000D+00  *
                                      *  0.000000000D+00  0.000000000D+00  1.000000000D+00  *
                                      ***                                                 ***
1     FULLY STRESSED DESIGN OF A PLATE WITH A REINFORCED HOLE               /    95 SUN SOLARIS NASTRAN    / MAY 17, 95 / PAGE    17
      NASTRAN DEMONSTRATION PROBLEM NO. D01-16-1A                                                                                   

      TEMPERATURE DEPENDENT MATERIALS.                                                                                              




0*** USER INFORMATION MESSAGE 3035
     FOR SUBCASE NUMBER     1, EPSILON SUB E =  -8.2019481E-16
0*** USER INFORMATION MESSAGE 3035
     FOR SUBCASE NUMBER     2, EPSILON SUB E =   3.0981488E-15
0*** USER INFORMATION MESSAGE 2304A, THE FOLLOWING ELEMENTS EITHER CONVERGED (NO PLUS) OR OVER-DESIGNED (PLUS(ES))
     IN ONE OR MORE SUBCASES,  (EACH PLUS INDICATES AN INCREMENTAL PERCENTAGE OF OVER-DESIGN BASED ON CONVERGENCE CRITERION, EPS)

            1+++        3+++        5+++       13+++       15+++       17+++       31+++       41+++       51+++       61+++ 
          101+++      102+++      103+++      104+++      105+++       11+++       12+++       21+++       22+++       23+++ 
           24+++       25+++       26+++       27+++       28+++       29+++       32+++       33+++       34+++       35+++ 
           36+++       37+++       38+++       39+++       42+++       43+++       44+++       45+++       46+++       47+++ 
           52+++       53+++       54+++       55+++       57+++       59+++       62+++       63+++       64+++       65+++ 
           67+++       68+++       69+++ 
1     FULLY STRESSED DESIGN OF A PLATE WITH A REINFORCED HOLE               /    95 SUN SOLARIS NASTRAN    / MAY 17, 95 / PAGE    18
      NASTRAN DEMONSTRATION PROBLEM NO. D01-16-1A                                                                                   
0     TEMPERATURE DEPENDENT MATERIALS.                                                                                              
0        PROPERTIES USED DURING INTERMEDIATE ITERATION    1 BY OPTPR2

     PQDMEM   1        1        1.071222 0.0                                                  
     PQDMEM   3        1        .9651195 0.0                                                  
     PQDMEM   15       1        1.044106 0.0                                                  
     PQDMEM   17       1        .7073267 0.0                                                  
     PQDMEM   13       1        1.218299 0.0                                                  
     PQDMEM   31       1        1.505458 0.0                                                  
     PQDMEM   41       1        1.443331 0.0                                                  
     PQDMEM   51       1        1.254365 0.0                                                  
     PQDMEM   61       1        1.074768 0.0                                                  
     PROD     101      3        .4442439 0.0      0.0      0.0                                
     PROD     102      3        0.057833 0.0      0.0      0.0                                
     PROD     103      3        .7338835 0.0      0.0      0.0                                
     PROD     104      3        1.278474 0.0      0.0      0.0                                
     PROD     105      3        1.515862 0.0      0.0      0.0                                
     PTRMEM   11       1        1.247378 0.0                                                  
     PTRMEM   12       1        1.268776 0.0                                                  
     PTRMEM   21       1        1.526466 0.0                                                  
     PTRMEM   22       1        1.418664 0.0                                                  
     PTRMEM   23       1        1.440864 0.0                                                  
     PTRMEM   24       1        1.405627 0.0                                                  
     PTRMEM   25       1        1.537694 0.0                                                  
     PTRMEM   26       1        1.16755  0.0                                                  
     PTRMEM   27       1        1.243675 0.0                                                  
     PTRMEM   28       1        .7109981 0.0                                                  
     PTRMEM   29       1        .5958584 0.0                                                  
     PTRMEM   32       1        1.533594 0.0                                                  
     PTRMEM   33       1        1.615692 0.0                                                  
     PTRMEM   34       1        1.640791 0.0                                                  
     PTRMEM   35       1        1.663493 0.0                                                  
     PTRMEM   36       1        1.518806 0.0                                                  
     PTRMEM   37       2        1.16544  0.0                                                  
     PTRMEM   38       2        1.195288 0.0                                                  
     PTRMEM   39       2        .6632436 0.0                                                  
     PTRMEM   42       1        1.560347 0.0                                                  
     PTRMEM   43       1        1.805321 0.0                                                  
     PTRMEM   44       1        1.759308 0.0                                                  
     PTRMEM   45       1        1.803497 0.0                                                  
     PTRMEM   46       2        1.560043 0.0                                                  
     PTRMEM   47       2        1.59514  0.0                                                  
     PTRMEM   52       1        1.343613 0.0                                                  
     PTRMEM   53       1        1.717822 0.0                                                  
     PTRMEM   54       1        1.646737 0.0                                                  
     PTRMEM   55       1        2.068011 0.0                                                  
     PTRMEM   57       2        1.737657 0.0                                                  
     PTRMEM   59       2        2.07212  0.0                                                  
     PTRMEM   62       1        1.22372  0.0                                                  
     PTRMEM   63       1        1.595381 0.0                                                  
     PTRMEM   64       1        1.552233 0.0                                                  
     PTRMEM   65       1        1.966814 0.0                                                  
     PTRMEM   67       2        2.635926 0.0                                                  
     PTRMEM   68       2        1.905292 0.0                                                  
     PTRMEM   69       2        2.900582 0.0                                                  
1     FULLY STRESSED DESIGN OF A PLATE WITH A REINFORCED HOLE               /    95 SUN SOLARIS NASTRAN    / MAY 17, 95 / PAGE    19
      NASTRAN DEMONSTRATION PROBLEM NO. D01-16-1A                                                                                   
0     DESIGN CASE - UNIFORM END LOAD                                                                         SUBCASE 10             
 
                                             D I S P L A C E M E N T   V E C T O R
 
      POINT ID.   TYPE          T1             T2             T3             R1             R2             R3
             1      G      3.821330E-06   4.463533E-03   0.0            0.0            0.0            0.0                           
             3      G     -1.662125E-04   4.880861E-03   0.0            0.0            0.0            0.0                           
             5      G     -2.397044E-04   5.362344E-03   0.0            0.0            0.0            0.0                           
             7      G     -1.730450E-04   5.768419E-03   0.0            0.0            0.0            0.0                           
             9      G      0.0            5.930198E-03   0.0            0.0            0.0            0.0                           
            11      G      4.243813E-04   3.676291E-03   0.0            0.0            0.0            0.0                           
            13      G      2.214705E-04   4.120482E-03   0.0            0.0            0.0            0.0                           
            15      G      7.384723E-05   4.659455E-03   0.0            0.0            0.0            0.0                           
            17      G      3.596370E-06   5.132475E-03   0.0            0.0            0.0            0.0                           
            19      G      0.0            5.325631E-03   0.0            0.0            0.0            0.0                           
            21      G      7.917140E-04   2.759396E-03   0.0            0.0            0.0            0.0                           
            23      G      5.459347E-04   3.253321E-03   0.0            0.0            0.0            0.0                           
            25      G      2.884250E-04   3.903282E-03   0.0            0.0            0.0            0.0                           
            27      G      9.539562E-05   4.534599E-03   0.0            0.0            0.0            0.0                           
            29      G      0.0            4.811072E-03   0.0            0.0            0.0            0.0                           
            31      G      1.122056E-03   2.122282E-03   0.0            0.0            0.0            0.0                           
            33      G      9.492157E-04   2.449180E-03   0.0            0.0            0.0            0.0                           
            35      G      6.302312E-04   3.082057E-03   0.0            0.0            0.0            0.0                           
            37      G      3.304072E-04   3.739155E-03   0.0            0.0            0.0            0.0                           
            38      G      1.692269E-04   4.260318E-03   0.0            0.0            0.0            0.0                           
            39      G      0.0            4.618727E-03   0.0            0.0            0.0            0.0                           
            41      G      1.608188E-03   1.395537E-03   0.0            0.0            0.0            0.0                           
            43      G      1.439375E-03   1.739556E-03   0.0            0.0            0.0            0.0                           
            45      G      1.056256E-03   2.373940E-03   0.0            0.0            0.0            0.0                           
            47      G      6.377807E-04   3.231311E-03   0.0            0.0            0.0            0.0                           
            48      G      0.0            4.530326E-03   0.0            0.0            0.0            0.0                           
            49      G      5.554355E-04   3.998240E-03   0.0            0.0            0.0            0.0                           
            51      G      2.106432E-03   8.206687E-04   0.0            0.0            0.0            0.0                           
            53      G      1.960665E-03   1.117764E-03   0.0            0.0            0.0            0.0                           
            55      G      1.707227E-03   1.525712E-03   0.0            0.0            0.0            0.0                           
            57      G      1.369143E-03   2.156304E-03   0.0            0.0            0.0            0.0                           
            59      G      1.248551E-03   2.900507E-03   0.0            0.0            0.0            0.0                           
            61      G      2.534436E-03   3.599752E-04   0.0            0.0            0.0            0.0                           
            63      G      2.415793E-03   5.485326E-04   0.0            0.0            0.0            0.0                           
            65      G      2.312277E-03   7.152221E-04   0.0            0.0            0.0            0.0                           
            67      G      2.214380E-03   9.216786E-04   0.0            0.0            0.0            0.0                           
            69      G      1.887825E-03   1.772448E-03   0.0            0.0            0.0            0.0                           
            71      G      2.742701E-03   0.0            0.0            0.0            0.0            0.0                           
            73      G      2.651163E-03   0.0            0.0            0.0            0.0            0.0                           
            75      G      2.535276E-03   0.0            0.0            0.0            0.0            0.0                           
            77      G      2.430456E-03   0.0            0.0            0.0            0.0            0.0                           
            78      G      2.259260E-03   7.630617E-04   0.0            0.0            0.0            0.0                           
            79      G      2.304059E-03   0.0            0.0            0.0            0.0            0.0                           
1     FULLY STRESSED DESIGN OF A PLATE WITH A REINFORCED HOLE               /    95 SUN SOLARIS NASTRAN    / MAY 17, 95 / PAGE    20
      NASTRAN DEMONSTRATION PROBLEM NO. D01-16-1A                                                                                   
0     CHECK CASE - CONTACT LOAD AT NOZZLE.                                                                   SUBCASE 12             
 
                                             D I S P L A C E M E N T   V E C T O R
 
      POINT ID.   TYPE          T1             T2             T3             R1             R2             R3
             1      G      3.070535E-05   8.905783E-06   0.0            0.0            0.0            0.0                           
             3      G      2.979222E-05  -1.447115E-05   0.0            0.0            0.0            0.0                           
             5      G      2.452122E-05  -3.903139E-05   0.0            0.0            0.0            0.0                           
             7      G      1.397812E-05  -5.791377E-05   0.0            0.0            0.0            0.0                           
             9      G      0.0           -6.480613E-05   0.0            0.0            0.0            0.0                           
            11      G      6.695201E-06   1.103889E-05   0.0            0.0            0.0            0.0                           
            13      G      7.741342E-06  -1.405100E-05   0.0            0.0            0.0            0.0                           
            15      G      6.844914E-06  -4.094277E-05   0.0            0.0            0.0            0.0                           
            17      G      4.060484E-06  -6.190219E-05   0.0            0.0            0.0            0.0                           
            19      G      0.0           -6.944413E-05   0.0            0.0            0.0            0.0                           
            21      G     -1.744610E-05   1.900311E-05   0.0            0.0            0.0            0.0                           
            23      G     -1.500150E-05  -9.813247E-06   0.0            0.0            0.0            0.0                           
            25      G     -1.010835E-05  -4.079473E-05   0.0            0.0            0.0            0.0                           
            27      G     -4.921635E-06  -6.590025E-05   0.0            0.0            0.0            0.0                           
            29      G      0.0           -7.431350E-05   0.0            0.0            0.0            0.0                           
            31      G     -4.067240E-05   2.808370E-05   0.0            0.0            0.0            0.0                           
            33      G     -3.806622E-05   7.116089E-06   0.0            0.0            0.0            0.0                           
            35      G     -3.105998E-05  -2.501162E-05   0.0            0.0            0.0            0.0                           
            37      G     -2.116511E-05  -5.193195E-05   0.0            0.0            0.0            0.0                           
            38      G     -1.544805E-05  -7.237335E-05   0.0            0.0            0.0            0.0                           
            39      G      0.0           -7.902690E-05   0.0            0.0            0.0            0.0                           
            41      G     -7.533809E-05   3.549538E-05   0.0            0.0            0.0            0.0                           
            43      G     -7.368292E-05   1.279203E-05   0.0            0.0            0.0            0.0                           
            45      G     -6.349137E-05  -1.872761E-05   0.0            0.0            0.0            0.0                           
            47      G     -4.482215E-05  -4.853486E-05   0.0            0.0            0.0            0.0                           
            48      G      0.0           -8.200093E-05   0.0            0.0            0.0            0.0                           
            49      G     -4.008858E-05  -7.057897E-05   0.0            0.0            0.0            0.0                           
            51      G     -1.117945E-04   3.488453E-05   0.0            0.0            0.0            0.0                           
            53      G     -1.124346E-04   1.471849E-05   0.0            0.0            0.0            0.0                           
            55      G     -1.087393E-04  -4.376902E-06   0.0            0.0            0.0            0.0                           
            57      G     -9.256283E-05  -2.674525E-05   0.0            0.0            0.0            0.0                           
            59      G     -8.745134E-05  -5.237132E-05   0.0            0.0            0.0            0.0                           
            61      G     -1.458062E-04   2.259811E-05   0.0            0.0            0.0            0.0                           
            63      G     -1.497287E-04   9.460794E-06   0.0            0.0            0.0            0.0                           
            65      G     -1.555401E-04   2.852147E-06   0.0            0.0            0.0            0.0                           
            67      G     -1.613386E-04  -2.925104E-06   0.0            0.0            0.0            0.0                           
            69      G     -1.429701E-04  -3.085577E-05   0.0            0.0            0.0            0.0                           
            71      G     -1.623483E-04   0.0            0.0            0.0            0.0            0.0                           
            73      G     -1.687532E-04   0.0            0.0            0.0            0.0            0.0                           
            75      G     -1.776006E-04   0.0            0.0            0.0            0.0            0.0                           
            77      G     -1.909577E-04   0.0            0.0            0.0            0.0            0.0                           
            78      G     -1.882396E-04  -1.146091E-05   0.0            0.0            0.0            0.0                           
            79      G     -1.998155E-04   0.0            0.0            0.0            0.0            0.0                           
1     FULLY STRESSED DESIGN OF A PLATE WITH A REINFORCED HOLE               /    95 SUN SOLARIS NASTRAN    / MAY 17, 95 / PAGE    21
      NASTRAN DEMONSTRATION PROBLEM NO. D01-16-1A                                                                                   
0     DESIGN CASE - UNIFORM END LOAD                                                                         SUBCASE 10             
 
                     S T R E S S E S   I N   Q U A D R I L A T E R A L   M E M B R A N E S      ( C Q D M E M )
  ELEMENT           STRESSES IN ELEMENT COORD SYSTEM            PRINCIPAL           PRINCIPAL STRESSES            MAX
    ID.           NORMAL-X       NORMAL-Y       SHEAR-XY      STRESS ANGLE         MAJOR          MINOR          SHEAR
        1        9.204980E+01   7.765725E+03   4.338096E+02       86.7746       7.790171E+03   6.760352E+01   3.861284E+03          
        3        9.540791E+02   7.602566E+03   1.006370E+03       81.5785       7.751560E+03   8.050854E+02   3.473237E+03          
        5        2.183189E+03   7.349125E+03   1.086003E+03       78.5979       7.568143E+03   1.964171E+03   2.801986E+03          
       13        4.619141E+00   8.118059E+03   1.707073E+03       78.5893       8.462598E+03  -3.399194E+02   4.401258E+03          
       15        4.960356E+02   6.919061E+03   1.959285E+03       74.3067       7.469543E+03  -5.444727E+01   3.761995E+03          
       17        1.180990E+03   5.916475E+03   9.072217E+02       79.5176       6.084330E+03   1.013135E+03   2.535597E+03          
       31       -2.029727E+02   1.071188E+04  -2.357793E+02      -88.7631       1.071697E+04  -2.080635E+02   5.462515E+03          
       41       -7.546094E+01   1.023446E+04  -8.952756E+02      -85.0738       1.031162E+04  -1.526260E+02   5.232123E+03          
       51        4.701172E+00   8.829336E+03  -1.043530E+03      -83.3469       8.951057E+03  -1.170195E+02   4.534038E+03          
       61        2.575293E+02   7.864468E+03  -7.373130E+02      -84.5146       7.935273E+03   1.867234E+02   3.874275E+03          
1     FULLY STRESSED DESIGN OF A PLATE WITH A REINFORCED HOLE               /    95 SUN SOLARIS NASTRAN    / MAY 17, 95 / PAGE    22
      NASTRAN DEMONSTRATION PROBLEM NO. D01-16-1A                                                                                   
0     DESIGN CASE - UNIFORM END LOAD                                                                         SUBCASE 10             
 
                                     S T R E S S E S   I N   R O D   E L E M E N T S      ( C R O D )
       ELEMENT       AXIAL       SAFETY      TORSIONAL     SAFETY       ELEMENT       AXIAL       SAFETY      TORSIONAL     SAFETY
         ID.        STRESS       MARGIN        STRESS      MARGIN         ID.        STRESS       MARGIN        STRESS      MARGIN
           101   -6.387499E+03   2.9E+00    0.0                             102    8.219414E+02   2.9E+01    0.0                    
           103    1.064538E+04   1.3E+00    0.0                             104    1.885858E+04   3.3E-01    0.0                    
           105    2.252632E+04   1.1E-01    0.0                                                                                     
1     FULLY STRESSED DESIGN OF A PLATE WITH A REINFORCED HOLE               /    95 SUN SOLARIS NASTRAN    / MAY 17, 95 / PAGE    23
      NASTRAN DEMONSTRATION PROBLEM NO. D01-16-1A                                                                                   
0     DESIGN CASE - UNIFORM END LOAD                                                                         SUBCASE 10             
 
                      S T R E S S E S   I N   T R I A N G U L A R   M E M B R A N E S      ( C T R M E M )
  ELEMENT           STRESSES IN ELEMENT COORD SYSTEM            PRINCIPAL           PRINCIPAL STRESSES            MAX
    ID.           NORMAL-X       NORMAL-Y       SHEAR-XY      STRESS ANGLE         MAJOR          MINOR          SHEAR
       11        3.469834E+02   9.273043E+03   6.372966E+02       85.9367       9.318314E+03   3.017119E+02   4.508301E+03          
       12       -3.822715E+02   8.556934E+03   1.031714E+03       83.5011       8.674463E+03  -4.998008E+02   4.587132E+03          
       21       -1.980430E+02   1.086254E+04   3.365225E+02       88.2589       1.087277E+04  -2.082725E+02   5.540521E+03          
       22        1.869854E+02   1.045445E+04   2.688682E+02       88.5010       1.046149E+04   1.799492E+02   5.140770E+03          
       23       -1.092473E+03   9.117793E+03   1.103255E+03       83.9028       9.235644E+03  -1.210323E+03   5.222983E+03          
       24       -2.238906E+02   9.554086E+03   1.425299E+03       81.8734       9.757609E+03  -4.274146E+02   5.092512E+03          
       25       -2.157803E+03   7.798523E+03   2.525711E+03       76.5493       8.402594E+03  -2.761873E+03   5.582233E+03          
       26       -1.907285E+02   7.085406E+03   2.127878E+03       74.8385       7.662003E+03  -7.673257E+02   4.214665E+03          
       27       -2.857303E+03   6.108141E+03   3.274565E+02       87.9110       6.120085E+03  -2.869247E+03   4.494666E+03          
       28        3.102715E+02   2.560742E+03   2.287080E+03       58.0985       3.984406E+03  -1.113393E+03   2.548900E+03          
       29       -1.709277E+02   3.246070E+03   1.276031E+03       71.6225       3.669994E+03  -5.948511E+02   2.132422E+03          
       32       -6.972583E+02   1.043518E+04   9.312891E+01       89.5207       1.043596E+04  -6.980366E+02   5.567000E+03          
       33       -1.550443E+03   1.015663E+04   4.700901E+02       87.7043       1.017548E+04  -1.569289E+03   5.872384E+03          
       34       -1.440474E+03   1.018962E+04   1.333112E+03       83.5440       1.034047E+04  -1.591326E+03   5.965900E+03          
       35       -2.518875E+03   6.929484E+03   3.780377E+03       70.6663       8.255852E+03  -3.845243E+03   6.050547E+03          
       36        1.845756E+03   4.314555E+03   5.372074E+03       51.4704       8.592227E+03  -2.431916E+03   5.512071E+03          
       37       -4.107727E+03   4.241250E+03  -5.213320E+02      -86.4407       4.273677E+03  -4.140154E+03   4.206916E+03          
       38       -5.892549E+03   1.649836E+03   2.100302E+03       75.4426       2.195258E+03  -6.437971E+03   4.316614E+03          
       39       -3.193361E+03   1.250906E+03  -8.410977E+02      -79.6339       1.404761E+03  -3.347217E+03   2.375989E+03          
       42       -6.634922E+02   1.046025E+04  -1.083527E+03      -84.4880       1.056481E+04  -7.680522E+02   5.666431E+03          
       43       -9.754121E+02   1.207340E+04  -8.589785E+02      -86.2499       1.212970E+04  -1.031714E+03   6.580708E+03          
       44       -1.398176E+03   1.045202E+04   2.441626E+03       78.8022       1.093538E+04  -1.881535E+03   6.408455E+03          
       45       -1.275215E+03   1.107501E+04   2.254729E+03       79.9706       1.147377E+04  -1.673976E+03   6.573875E+03          
       46       -2.496250E+03   8.702660E+03   8.612216E+02       85.6281       8.768503E+03  -2.562093E+03   5.665298E+03          
[...]
            73      G     -5.171538E-04   0.0            0.0            0.0            0.0            0.0                           
            75      G     -5.391882E-04   0.0            0.0            0.0            0.0            0.0                           
            77      G     -5.663188E-04   0.0            0.0            0.0            0.0            0.0                           
            78      G     -5.556829E-04  -1.547226E-05   0.0            0.0            0.0            0.0                           
            79      G     -5.691727E-04   0.0            0.0            0.0            0.0            0.0                           
1     FULLY STRESSED DESIGN OF A PLATE WITH A REINFORCED HOLE               /    95 SUN SOLARIS NASTRAN    / MAY 17, 95 / PAGE    50
      NASTRAN DEMONSTRATION PROBLEM NO. D01-16-1A                                                                                   
0     DESIGN CASE - UNIFORM END LOAD                                                                         SUBCASE 10             
 
                     S T R E S S E S   I N   Q U A D R I L A T E R A L   M E M B R A N E S      ( C Q D M E M )
  ELEMENT           STRESSES IN ELEMENT COORD SYSTEM            PRINCIPAL           PRINCIPAL STRESSES            MAX
    ID.           NORMAL-X       NORMAL-Y       SHEAR-XY      STRESS ANGLE         MAJOR          MINOR          SHEAR
        1       -9.340625E+01   2.480509E+04  -5.120371E+02      -88.8224       2.481561E+04  -1.039316E+02   1.245977E+04          
        3       -1.142930E+02   2.503518E+04   1.094863E+02       89.7506       2.503566E+04  -1.147695E+02   1.257521E+04          
        5        1.515451E+03   2.568520E+04   2.859643E+03       83.3435       2.601893E+04   1.181721E+03   1.241861E+04          
       13       -1.622456E+02   2.467906E+04   9.025508E+02       87.9219       2.471181E+04  -1.949951E+02   1.245340E+04          
       15        4.589766E+02   2.516868E+04   4.096820E+03       80.8273       2.583021E+04  -2.025576E+02   1.301638E+04          
       17        1.998743E+03   2.451296E+04   5.275145E+03       77.4460       2.568766E+04   8.240518E+02   1.243180E+04          
       31       -2.661621E+02   2.251600E+04  -1.399120E+03      -86.4988       2.260160E+04  -3.517646E+02   1.147668E+04          
       41       -8.607422E+01   2.215181E+04  -2.164619E+03      -84.4918       2.236056E+04  -2.948174E+02   1.132769E+04          
       51        2.846113E+02   2.234388E+04  -2.529942E+03      -83.5406       2.263032E+04  -1.824219E+00   1.131607E+04          
       61        1.021992E+03   2.332372E+04  -1.631108E+03      -85.8390       2.344238E+04   9.033271E+02   1.126953E+04          
1     FULLY STRESSED DESIGN OF A PLATE WITH A REINFORCED HOLE               /    95 SUN SOLARIS NASTRAN    / MAY 17, 95 / PAGE    51
      NASTRAN DEMONSTRATION PROBLEM NO. D01-16-1A                                                                                   
0     DESIGN CASE - UNIFORM END LOAD                                                                         SUBCASE 10             
 
                                     S T R E S S E S   I N   R O D   E L E M E N T S      ( C R O D )
       ELEMENT       AXIAL       SAFETY      TORSIONAL     SAFETY       ELEMENT       AXIAL       SAFETY      TORSIONAL     SAFETY
         ID.        STRESS       MARGIN        STRESS      MARGIN         ID.        STRESS       MARGIN        STRESS      MARGIN
           101   -1.349390E+04   8.5E-01    0.0                             102    7.313547E+03   2.4E+00    0.0                    
           103    2.008784E+04   2.4E-01    0.0                             104    2.472500E+04   1.1E-02    0.0                    
           105    2.735327E+04  -8.6E-02    0.0                                                                                     
1     FULLY STRESSED DESIGN OF A PLATE WITH A REINFORCED HOLE               /    95 SUN SOLARIS NASTRAN    / MAY 17, 95 / PAGE    52
      NASTRAN DEMONSTRATION PROBLEM NO. D01-16-1A                                                                                   
0     DESIGN CASE - UNIFORM END LOAD                                                                         SUBCASE 10             
 
                      S T R E S S E S   I N   T R I A N G U L A R   M E M B R A N E S      ( C T R M E M )
  ELEMENT           STRESSES IN ELEMENT COORD SYSTEM            PRINCIPAL           PRINCIPAL STRESSES            MAX
    ID.           NORMAL-X       NORMAL-Y       SHEAR-XY      STRESS ANGLE         MAJOR          MINOR          SHEAR
       11       -6.201562E+01   2.409641E+04  -3.120078E+02      -89.2602       2.410044E+04  -6.604395E+01   1.208324E+04          
       12       -1.113281E-01   2.408995E+04  -3.209111E+02      -89.2369       2.409422E+04  -4.384766E+00   1.204930E+04          
       21       -2.086719E+02   2.319916E+04  -5.001934E+02      -88.7764       2.320985E+04  -2.193555E+02   1.171460E+04          
       22       -2.933633E+02   2.311242E+04  -5.470596E+02      -88.6618       2.312520E+04  -3.061426E+02   1.171567E+04          
       23       -1.081027E+03   2.308186E+04  -5.144482E+02      -88.7809       2.309281E+04  -1.091976E+03   1.209239E+04          
       24       -4.488086E+02   2.531072E+04   3.885537E+02       89.1360       2.531658E+04  -4.546689E+02   1.288562E+04          
       25       -2.192766E+03   2.198699E+04   2.437665E+03       84.3002       2.223029E+04  -2.436068E+03   1.233318E+04          
       26       -3.860430E+02   2.459397E+04   4.052738E+03       81.0114       2.523503E+04  -1.027104E+03   1.313107E+04          
       27       -2.684766E+03   2.127970E+04  -2.702272E+03      -83.6455       2.158063E+04  -2.985699E+03   1.228316E+04          
       28        2.097666E+03   1.317799E+04   1.061162E+04       58.7842       1.960862E+04  -4.332968E+03   1.197080E+04          
       29       -3.654141E+02   2.075573E+04   6.033066E+03       75.1307       2.235755E+04  -1.967226E+03   1.216239E+04          
       32       -1.257842E+03   2.249249E+04  -1.467162E+03      -86.4784       2.258278E+04  -1.348131E+03   1.196546E+04          
       33       -6.691270E+02   2.376903E+04  -1.904522E+03      -85.5704       2.391656E+04  -8.166602E+02   1.236661E+04          
       34       -1.755971E+03   2.344298E+04   1.233902E+03       87.2033       2.350326E+04  -1.816246E+03   1.265975E+04          
       35       -2.029184E+03   2.058692E+04   5.014203E+03       78.0433       2.164876E+04  -3.091025E+03   1.236989E+04          
       36        6.608434E+03   1.296733E+04   1.251579E+04       52.1268       2.270120E+04  -3.125437E+03   1.291332E+04          
       37       -5.126066E+03   1.484598E+04  -2.736504E+03      -82.3376       1.521414E+04  -5.494227E+03   1.035419E+04          
       38       -1.103643E+04   8.191586E+03   7.899169E+03       70.2962       1.102049E+04  -1.386533E+04   1.244291E+04          
       39       -6.020293E+03   1.189569E+04  -7.465453E+03      -70.0963       1.459868E+04  -8.723289E+03   1.166099E+04          
       42       -5.361328E+01   2.211805E+04  -2.867217E+03      -82.7495       2.248284E+04  -4.183975E+02   1.145062E+04          
       43       -8.698389E+02   2.310000E+04  -2.942620E+03      -83.1026       2.345596E+04  -1.225800E+03   1.234088E+04          
       44       -1.282586E+03   2.165245E+04   2.421211E+03       84.0389       2.190526E+04  -1.535402E+03   1.172033E+04          
       45       -7.042891E+02   2.500324E+04   3.721184E+03       81.9271       2.553105E+04  -1.232097E+03   1.338157E+04          
       46       -2.111352E+03   2.040420E+04   1.881638E+02       89.5212       2.040578E+04  -2.112924E+03   1.125935E+04          
       47        9.506314E+03   7.309246E+03   1.293362E+04       42.5726       2.138797E+04  -4.572412E+03   1.298019E+04          
       52        1.325133E+03   2.282942E+04  -3.211109E+03      -81.6859       2.329868E+04   8.558760E+02   1.122140E+04          
       53        6.451855E+01   2.251182E+04  -3.568102E+03      -81.1820       2.306533E+04  -4.889980E+02   1.177717E+04          
       54        2.524614E+03   2.356234E+04  -4.224479E+03      -79.0596       2.437894E+04   1.708017E+03   1.133546E+04          
       55       -1.765977E+02   2.533907E+04   1.640418E+03       86.3365       2.544410E+04  -2.816289E+02   1.286286E+04          
       57        3.166664E+03   2.069308E+04   7.217078E+03       70.2632       2.328241E+04   5.773379E+02   1.135254E+04          
       59        1.529062E+02   2.795172E+04  -1.024646E+03      -87.8919       2.798944E+04   1.151895E+02   1.393712E+04          
       62        1.826023E+03   2.449905E+04  -1.848633E+03      -85.3692       2.464879E+04   1.676285E+03   1.148625E+04          
       63        2.041595E+03   2.521307E+04  -2.140467E+03      -84.7663       2.540914E+04   1.845529E+03   1.178180E+04          
       64        3.116586E+03   2.553557E+04  -2.242568E+03      -84.3434       2.575769E+04   2.894463E+03   1.143162E+04          
       65        4.033112E+03   2.562090E+04  -2.385223E+03      -83.7696       2.588130E+04   3.772710E+03   1.105430E+04          
       67        4.897299E+03   2.646188E+04   8.969699E+03       70.1216       2.970504E+04   1.654138E+03   1.402545E+04          
       68        2.562416E+04   4.043977E+03   7.286631E+02        1.9317       2.564873E+04   4.019400E+03   1.081467E+04          
       69        2.067257E+03   2.869645E+04  -1.436559E+03      -86.9210       2.877372E+04   1.989984E+03   1.339187E+04          
1     FULLY STRESSED DESIGN OF A PLATE WITH A REINFORCED HOLE               /    95 SUN SOLARIS NASTRAN    / MAY 17, 95 / PAGE    53
      NASTRAN DEMONSTRATION PROBLEM NO. D01-16-1A                                                                                   
0     TEMPERATURE DEPENDENT MATERIALS.                                                                                              
                                                  MESSAGES FROM THE PLOT MODULE                                                   





 P L O T T E R    D A T A                                                                                                           
                                                                                                                                    
          THE FOLLOWING PLOTS ARE FOR A NASTPLT MICROFILM PLOTTER WITHOUT TYPING CAPABILITY                                         
                                                                                                                                    
          AN END-OF-FILE MARK FOLLOWS THE LAST PLOT                                                                                 
                                                                                                                                    
          THE FIRST COMMAND FOR EACH PLOT CONTAINS THE PLOT NUMBER                                                                  
                                                                                                                                    
          CSCALE =  1.00                                                                                                            
                                                                                                                                    
          THE FOLLOWING PLOTS ARE REQUESTED ON PAPER ONLY                                                                           
                                                                                                                                    




 E N G I N E E R I N G    D A T A                                                                                                   
                                                                                                                                    
          ORTHOGRAPHIC PROJECTION                                                                                                   
          ROTATIONS (DEGREES) - GAMMA =   0.00, BETA =   0.00, ALPHA =   0.00,  AXES = +Z,+X,+Y, SYMMETRIC                          
          SCALE (OBJECT-TO-PLOT SIZE) = 3.569302E-01                                                                                
                                                                                                                                    
          ORIGIN      12   -   X0 = -5.038315E+00, Y0 = -0.932505E+00     (INCHES)                                                  




                                                  PLOT MODULE MESSAGES CONTINUE                                                     
                                                                                                                                    
          PLOT   10   STATIC DEFORM.    10 - SUBCASE      10 - LOAD                                                                 
          PLOT   11   STATIC DEFORM.    12 - SUBCASE      12 - LOAD                                                                 
                                                 ORIGIN     12  USED IN THIS PLOT                                                   
1     FULLY STRESSED DESIGN OF A PLATE WITH A REINFORCED HOLE               /    95 SUN SOLARIS NASTRAN    / MAY 17, 95 / PAGE    54
      NASTRAN DEMONSTRATION PROBLEM NO. D01-16-1A                                                                                   
0     TEMPERATURE DEPENDENT MATERIALS.                                                                                              
                                                  MESSAGES FROM THE PLOT MODULE                                                   





 P L O T T E R    D A T A                                                                                                           
                                                                                                                                    
          THE FOLLOWING PLOTS ARE FOR A NASTPLT MICROFILM PLOTTER WITHOUT TYPING CAPABILITY                                         
                                                                                                                                    
          AN END-OF-FILE MARK FOLLOWS THE LAST PLOT                                                                                 
                                                                                                                                    
          THE FIRST COMMAND FOR EACH PLOT CONTAINS THE PLOT NUMBER                                                                  
                                                                                                                                    
          CSCALE =  1.00                                                                                                            
                                                                                                                                    
          THE FOLLOWING PLOTS ARE REQUESTED ON PAPER ONLY                                                                           
                                                                                                                                    




 E N G I N E E R I N G    D A T A                                                                                                   
                                                                                                                                    
          ORTHOGRAPHIC PROJECTION                                                                                                   
          ROTATIONS (DEGREES) - GAMMA =   0.00, BETA =   0.00, ALPHA =   0.00,  AXES = +Z,+X,+Y, SYMMETRIC                          
          SCALE (OBJECT-TO-PLOT SIZE) = 2.920009E-01                                                                                
                                                                                                                                    
          ORIGIN      12   -   X0 = -3.324618E+00, Y0 = -0.141947E+01     (INCHES)                                                  




                                                  PLOT MODULE MESSAGES CONTINUE                                                     
                                                                                                                                    
          PLOT   12   STATIC DEFORM.    10 - SUBCASE      10 - LOAD                                                                 




 C O N T O U R   P L O T T I N G   D A T A                                                                                          
                                                                                                                                    
         ABOVE PLOT IS A CONTOUR PLOT OF STRESS, MAJOR-PR                                                                           
         THE CONTOUR VALUES ARE CALCULATED AT FIBRE DISTANCE  Z1                                                                    




                                                   TABLE  OF  PLOTTING  SYMBOLS                                                     
                                                                                                                                    
     SYMBOL  VALUE           SYMBOL  VALUE           SYMBOL  VALUE           SYMBOL  VALUE           SYMBOL  VALUE                  
                                                                                                                                    
        1   1.102049E+04                                                                                                            
        2   1.309655E+04                                                                                                            
        3   1.517261E+04                                                                                                            
        4   1.724867E+04                                                                                                            
        5   1.932473E+04                                                                                                            
        6   2.140080E+04                                                                                                            
        7   2.347686E+04                                                                                                            
        8   2.555292E+04                                                                                                            
        9   2.762898E+04                                                                                                            
       10   2.970504E+04                                                                                                            




                                                  PLOT MODULE MESSAGES CONTINUE                                                     
                                                                                                                                    
                                                 ORIGIN     12  USED IN THIS PLOT                                                   




                                        * * * END OF JOB * * *
1
 JOB TITLE =  FULLY STRESSED DESIGN OF A PLATE WITH A REINFORCED HOLE            
 DATE:  5/17/95
 END TIME: 15:13: 6
 TOTAL WALL CLOCK TIME      3 SEC.
 
