     NASTRAN FILE=PLT2                                                               






                                  ****
                                *      *
                               *        *
                               *  N A S T R A N
                               *        *
                                *      *
                                  ****


                             SUN COMPUTER SYSTEMS    
                                SOLARIS VERSION

                          SYSTEM RELEASE -  1995 ED.

                                DISTRIBUTED BY

         COMPUTER SOFTWARE MANAGEMENT AND INFORMATION CENTER (COSMIC)
                 UNIVERSITY OF GEORGIA, ATHENS, GEORGIA 30602
                 PHONE: (706)542-3265      FAX: (706)542-4807
1                                                                           /    95 SUN SOLARIS NASTRAN    / MAY 17, 95 / PAGE     2
                                                                                                                                    
0                                                                                                                                   
                                                                                                         
                                                                                                         
                         INSTALLATION CENTER USER INFORMATION GIVEN IN THIS SECTION                      
                                                                                                         
                                     *********************************************                       
                                     *                                           *                       
                                     *  PLEASE READ THE COMMENT IN DEMO PROBLEM  *                       
                                     *  D01002A ABOUT SYSTEM TIMING CONSTANTS    *                       
                                     *                                           *                       
                                     *********************************************                       
                                                                                                         
                         ===X=    TOP OF PAGE REQUEST IF 'X' IS REPLACED BY '='                          
                                                                                                         
1                                                                           /    95 SUN SOLARIS NASTRAN    / MAY 17, 95 / PAGE     3
                                                                                                                                    
0                                                                                                                                   
0*** USER INFORMATION MESSAGE 225, GINO TIME CONSTANTS ARE BEING COMPUTED
     (SEE NASINFO FILE FOR ELIMINATION OF THESE COMPUTATIONS)
1                                                                           /    95 SUN SOLARIS NASTRAN    / MAY 17, 95 / PAGE     4
                                                                                                                                    
0        N A S T R A N    E X E C U T I V E    C O N T R O L    D E C K    E C H O                                                  
0                                                                                                                                   
                                                                                                                                    
                                                                                                                                    
     ID    D01151A,NASTRAN                                                           
     APP   DISPLACEMENT                                                              
     SOL   1,1                                                                       
     TIME  90                                                                        
     CEND                                                                            


0*** USER INFORMATION MESSAGE, TURN DIAG 48 ON FOR NASTRAN RELEASE NEWS, DIAG DEFINITION, NEW DMAP
         MODULES AND NEW BULKDATA CARDS INFORMATION
1     ASYMMETRIC PRESSURE LOADING OF AN AXISYMMETRIC CYLINDRICAL SH         /    95 SUN SOLARIS NASTRAN    / MAY 17, 95 / PAGE     5
      NASTRAN DEMONSTRATION PROBLEM NO. D01-15-1A                                                                                   
0                                                                                                                                   
0                                        C A S E    C O N T R O L   D E C K   E C H O                                               
                 CARD                                                                                                               
                 COUNT                                                                                                              
                  1      TITLE    = ASYMMETRIC PRESSURE LOADING OF AN AXISYMMETRIC CYLINDRICAL SHELL     
                  2      SUBTITLE = NASTRAN DEMONSTRATION PROBLEM NO. D01-15-1A                          
                  3      AXISYM   = COSINE                                                               
                  4        LOAD   = 20                                                                   
                  5        SET 10 = 11 THRU 34, 111 THRU 231, 235, 241, 245, 251, 255, 261,              
                  6                 265, 271, 275, 281, 285, 291, 295, 301, 305, 311, 315,               
                  7                 321, 325, 331, 335, 341, 345, 351, 355, 361, 365, 371,               
                  8                 375, 381, 385, 391, 395, 401, 405, 411 THRU 415                      
                  9        SET  9 = 111 THRU 227, 231, 234, 241, 244, 251, 254, 261, 264, 271,           
                 10                 274, 281, 284, 291, 294, 301, 304, 311, 314, 321, 324, 331,          
                 11                 334, 341, 344, 351, 354, 361, 364, 371, 374, 381, 384, 391,          
                 12                 394, 401 THRU 404                                                    
                 13      HARMONICS = ALL                                                                 
                 14      DISPLACEMENT = 10                                                               
                 15      OLOAD  = ALL                                                                    
                 16      STRESS = 9                                                                      
                 17      ELFORCE= 9                                                                      
                 18      PLOTID = NASTRAN DEMONSTRATION PROBLEM NO. D01-15-1A                            
                 19      OUTPUT(PLOT)                                                                    
                 20      PLOTTER NASTPLT                                                                 
                 21      SET 1  = ALL                                                                    
                 22      $                                                                               
                 23      $ CONVERT IDS TO NASTRAN IDS FOR ELEMENTS 111 THRU 227 (ID*1000+N)              
                 24      $                                                                               
                 25      SET 2 INCLUDE ELEMENTS 111001 THRU 227001                                       
                 26      AXES Z, X, Y                                                                    
                 27      VIEW 0.0, 0.0, 0.0                                                              
                 28      FIND SCALE, ORIGIN 1, SET 1                                                     
                 29      PTITLE = FULL MODEL                                                             
                 30      PLOT SET 1, ORIGIN 1                                                            
                 31      FIND SCALE, ORIGIN 2, SET 2                                                     
                 32      PTITLE = LOADED SECTION (TRAPAX) AND TRANSITION SECTION (TRIAAX)                
                 33      PLOT SET 2, ORIGIN 2                                                            
                 34      BEGIN BULK                                                                      


                        (NO. OF UNSORTED BULK DATA CARDS READ =   289, INCLUDING   0 COMMENT CARDS)
0*** USER INFORMATION MESSAGE 207, BULK DATA DECK IS NOT SORTED. NASTRAN WILL RE-ORDER THE INPUT DECK.
1     ASYMMETRIC PRESSURE LOADING OF AN AXISYMMETRIC CYLINDRICAL SH         /    95 SUN SOLARIS NASTRAN    / MAY 17, 95 / PAGE     6
      NASTRAN DEMONSTRATION PROBLEM NO. D01-15-1A                                                                                   
0                                                                                                                                   
0                                                 S O R T E D   B U L K    D A T A    E C H O                                       
                     CARD                                                                                                           
                     COUNT        ---1--- +++2+++ ---3--- +++4+++ ---5--- +++6+++ ---7--- +++8+++ ---9--- +++10+++                  
                    1-        AXIC    10                                                                      
                    2-        CTRAPAX 111     5       111     112     122     121                             
                    3-        CTRAPAX 112     5       112     113     123     122                             
                    4-        CTRAPAX 113     5       113     114     124     123                             
                    5-        CTRAPAX 121     5       121     122     132     131                             
                    6-        CTRAPAX 122     5       122     123     133     132                             
                    7-        CTRAPAX 123     5       123     124     134     133                             
                    8-        CTRAPAX 131     5       131     132     142     141                             
                    9-        CTRAPAX 132     5       132     133     143     142                             
                   10-        CTRAPAX 133     5       133     134     144     143                             
                   11-        CTRAPAX 141     5       141     142     152     151                             
                   12-        CTRAPAX 142     5       142     143     153     152                             
                   13-        CTRAPAX 143     5       143     144     154     153                             
                   14-        CTRAPAX 151     5       151     152     162     161                             
                   15-        CTRAPAX 152     5       152     153     163     162                             
                   16-        CTRAPAX 153     5       153     154     164     163                             
                   17-        CTRAPAX 161     5       161     162     172     171                             
                   18-        CTRAPAX 162     5       162     163     173     172                             
                   19-        CTRAPAX 163     5       163     164     174     173                             
                   20-        CTRAPAX 171     5       171     172     182     181                             
                   21-        CTRAPAX 172     5       172     173     183     182                             
                   22-        CTRAPAX 173     5       173     174     184     183                             
                   23-        CTRAPAX 231     5       231     232     242     241                             
                   24-        CTRAPAX 232     5       232     233     243     242                             
                   25-        CTRAPAX 233     5       233     234     244     243                             
                   26-        CTRAPAX 234     5       234     235     245     244                             
                   27-        CTRAPAX 241     5       241     242     252     251                             
                   28-        CTRAPAX 242     5       242     243     253     252                             
                   29-        CTRAPAX 243     5       243     244     254     253                             
                   30-        CTRAPAX 244     5       244     245     255     254                             
                   31-        CTRAPAX 251     5       251     252     262     261                             
                   32-        CTRAPAX 252     5       252     253     263     262                             
                   33-        CTRAPAX 253     5       253     254     264     263                             
                   34-        CTRAPAX 254     5       254     255     265     264                             
                   35-        CTRAPAX 261     5       261     262     272     271                             
                   36-        CTRAPAX 262     5       262     263     273     272                             
                   37-        CTRAPAX 263     5       263     264     274     273                             
                   38-        CTRAPAX 264     5       264     265     275     274                             
                   39-        CTRAPAX 271     5       271     272     282     281                             
                   40-        CTRAPAX 272     5       272     273     283     282                             
                   41-        CTRAPAX 273     5       273     274     284     283                             
                   42-        CTRAPAX 274     5       274     275     285     284                             
                   43-        CTRAPAX 281     5       281     282     292     291                             
                   44-        CTRAPAX 282     5       282     283     293     292                             
                   45-        CTRAPAX 283     5       283     284     294     293                             
                   46-        CTRAPAX 284     5       284     285     295     294                             
                   47-        CTRAPAX 291     5       291     292     302     301                             
1     ASYMMETRIC PRESSURE LOADING OF AN AXISYMMETRIC CYLINDRICAL SH         /    95 SUN SOLARIS NASTRAN    / MAY 17, 95 / PAGE     7
      NASTRAN DEMONSTRATION PROBLEM NO. D01-15-1A                                                                                   

                                                                                                                                    

                                                  S O R T E D   B U L K    D A T A    E C H O                                       
                     CARD                                                                                                           
                     COUNT        ---1--- +++2+++ ---3--- +++4+++ ---5--- +++6+++ ---7--- +++8+++ ---9--- +++10+++                  
                   48-        CTRAPAX 292     5       292     293     303     302                             
                   49-        CTRAPAX 293     5       293     294     304     303                             
                   50-        CTRAPAX 294     5       294     295     305     304                             
                   51-        CTRAPAX 301     5       301     302     312     311                             
                   52-        CTRAPAX 302     5       302     303     313     312                             
                   53-        CTRAPAX 303     5       303     304     314     313                             
                   54-        CTRAPAX 304     5       304     305     315     314                             
                   55-        CTRAPAX 311     5       311     312     322     321                             
                   56-        CTRAPAX 312     5       312     313     323     322                             
                   57-        CTRAPAX 313     5       313     314     324     323                             
                   58-        CTRAPAX 314     5       314     315     325     324                             
                   59-        CTRAPAX 321     5       321     322     332     331                             
                   60-        CTRAPAX 322     5       322     323     333     332                             
                   61-        CTRAPAX 323     5       323     324     334     333                             
                   62-        CTRAPAX 324     5       324     325     335     334                             
                   63-        CTRAPAX 331     5       331     332     342     341                             
                   64-        CTRAPAX 332     5       332     333     343     342                             
                   65-        CTRAPAX 333     5       333     334     344     343                             
                   66-        CTRAPAX 334     5       334     335     345     344                             
                   67-        CTRAPAX 341     5       341     342     352     351                             
                   68-        CTRAPAX 342     5       342     343     353     352                             
                   69-        CTRAPAX 343     5       343     344     354     353                             
                   70-        CTRAPAX 344     5       344     345     355     354                             
                   71-        CTRAPAX 351     5       351     352     362     361                             
                   72-        CTRAPAX 352     5       352     353     363     362                             
                   73-        CTRAPAX 353     5       353     354     364     363                             
                   74-        CTRAPAX 354     5       354     355     365     364                             
                   75-        CTRAPAX 361     5       361     362     372     371                             
                   76-        CTRAPAX 362     5       362     363     373     372                             
                   77-        CTRAPAX 363     5       363     364     374     373                             
                   78-        CTRAPAX 364     5       364     365     375     374                             
                   79-        CTRAPAX 371     5       371     372     382     381                             
                   80-        CTRAPAX 372     5       372     373     383     382                             
                   81-        CTRAPAX 373     5       373     374     384     383                             
                   82-        CTRAPAX 374     5       374     375     385     384                             
                   83-        CTRAPAX 381     5       381     382     392     391                             
                   84-        CTRAPAX 382     5       382     383     393     392                             
                   85-        CTRAPAX 383     5       383     384     394     393                             
                   86-        CTRAPAX 384     5       384     385     395     394                             
                   87-        CTRAPAX 391     5       391     392     402     401                             
                   88-        CTRAPAX 392     5       392     393     403     402                             
                   89-        CTRAPAX 393     5       393     394     404     403                             
                   90-        CTRAPAX 394     5       394     395     405     404                             
                   91-        CTRAPAX 401     5       401     402     412     411                             
                   92-        CTRAPAX 402     5       402     403     413     412                             
                   93-        CTRAPAX 403     5       403     404     414     413                             
                   94-        CTRAPAX 404     5       404     405     415     414                             
1     ASYMMETRIC PRESSURE LOADING OF AN AXISYMMETRIC CYLINDRICAL SH         /    95 SUN SOLARIS NASTRAN    / MAY 17, 95 / PAGE     8
      NASTRAN DEMONSTRATION PROBLEM NO. D01-15-1A                                                                                   

                                                                                                                                    

                                                  S O R T E D   B U L K    D A T A    E C H O                                       
                     CARD                                                                                                           
                     COUNT        ---1--- +++2+++ ---3--- +++4+++ ---5--- +++6+++ ---7--- +++8+++ ---9--- +++10+++                  
                   95-        CTRIAAX 181     10      181     192     191                                     
                   96-        CTRIAAX 182     10      181     182     192                                     
                   97-        CTRIAAX 183     10      182     193     192                                     
                   98-        CTRIAAX 184     10      182     183     193                                     
                   99-        CTRIAAX 185     10      183     194     193                                     
                  100-        CTRIAAX 186     10      183     184     194                                     
                  101-        CTRIAAX 187     10      184     195     194                                     
                  102-        CTRIAAX 191     10      191     192     201                                     
                  103-        CTRIAAX 192     10      192     202     201                                     
                  104-        CTRIAAX 193     10      192     203     202                                     
                  105-        CTRIAAX 194     10      192     193     203                                     
                  106-        CTRIAAX 195     10      193     194     203                                     
                  107-        CTRIAAX 196     10      194     204     203                                     
                  108-        CTRIAAX 197     10      194     205     204                                     
                  109-        CTRIAAX 198     10      194     195     205                                     
                  110-        CTRIAAX 201     10      201     212     211                                     
                  111-        CTRIAAX 202     10      201     203     212                                     
                  112-        CTRIAAX 203     10      202     203     212                                     
                  113-        CTRIAAX 204     10      212     203     213                                     
                  114-        CTRIAAX 205     10      203     214     213                                     
                  115-        CTRIAAX 206     10      203     204     214                                     
                  116-        CTRIAAX 207     10      204     205     214                                     
                  117-        CTRIAAX 208     10      214     205     215                                     
                  118-        CTRIAAX 211     10      211     212     221                                     
                  119-        CTRIAAX 212     10      221     212     222                                     
                  120-        CTRIAAX 213     10      212     213     222                                     
                  121-        CTRIAAX 214     10      222     213     223                                     
                  122-        CTRIAAX 215     10      213     214     223                                     
                  123-        CTRIAAX 216     10      223     214     224                                     
                  124-        CTRIAAX 217     10      214     215     224                                     
                  125-        CTRIAAX 221     10      221     232     231                                     
                  126-        CTRIAAX 222     10      221     222     232                                     
                  127-        CTRIAAX 223     10      232     222     233                                     
                  128-        CTRIAAX 224     10      222     223     233                                     
                  129-        CTRIAAX 225     10      223     234     233                                     
                  130-        CTRIAAX 226     10      223     224     234                                     
                  131-        CTRIAAX 227     10      234     224     235                                     
                  132-        MAT1    15      66666.7         .3                                              
                  133-        POINTAX 11      111     .0                                                      
                  134-        POINTAX 14      114     .0                                                      
                  135-        POINTAX 21      121     .0                                                      
                  136-        POINTAX 34      134     .0                                                      
                  137-        PRESAX  20      -7.11111114     124     -7.162  7.162                           
                  138-        PRESAX  20      -7.11111124     134     -7.162  7.162                           
                  139-        PRESAX  20      -7.11111134     144     -7.162  7.162                           
                  140-        PRESAX  20      -7.11111144     154     -7.162  7.162                           
                  141-        PRESAX  20      -7.11111154     164     -7.162  7.162                           
1     ASYMMETRIC PRESSURE LOADING OF AN AXISYMMETRIC CYLINDRICAL SH         /    95 SUN SOLARIS NASTRAN    / MAY 17, 95 / PAGE     9
      NASTRAN DEMONSTRATION PROBLEM NO. D01-15-1A                                                                                   

                                                                                                                                    

                                                  S O R T E D   B U L K    D A T A    E C H O                                       
                     CARD                                                                                                           
                     COUNT        ---1--- +++2+++ ---3--- +++4+++ ---5--- +++6+++ ---7--- +++8+++ ---9--- +++10+++                  
                  142-        PTRAPAX 5               15      .0      7.1                                     
                  143-        PTRIAAX 10              15      .0      3.581   7.162                           
                  144-        RINGAX  111             14.5    .0                      3456                    
                  145-        RINGAX  112             14.7    .0                      3456                    
                  146-        RINGAX  113             15.3    .0                      3456                    
                  147-        RINGAX  114             15.5    .0                      3456                    
                  148-        RINGAX  121             14.5    .375                    456                     
                  149-        RINGAX  122             14.8    .375                    456                     
                  150-        RINGAX  123             15.2    .375                    456                     
                  151-        RINGAX  124             15.5    .375                    456                     
                  152-        RINGAX  131             14.5    .75                     456                     
                  153-        RINGAX  132             14.7    .75                     456                     
                  154-        RINGAX  133             15.3    .75                     456                     
                  155-        RINGAX  134             15.5    .75                     456                     
                  156-        RINGAX  141             14.5    1.125                   456                     
                  157-        RINGAX  142             14.8    1.125                   456                     
                  158-        RINGAX  143             15.2    1.125                   456                     
                  159-        RINGAX  144             15.5    1.125                   456                     
                  160-        RINGAX  151             14.5    1.5                     456                     
                  161-        RINGAX  152             14.7    1.5                     456                     
                  162-        RINGAX  153             15.3    1.5                     456                     
                  163-        RINGAX  154             15.5    1.5                     456                     
                  164-        RINGAX  161             14.5    1.875                   456                     
                  165-        RINGAX  162             14.8    1.875                   456                     
                  166-        RINGAX  163             15.2    1.875                   456                     
                  167-        RINGAX  164             15.5    1.875                   456                     
                  168-        RINGAX  171             14.5    2.25                    456                     
                  169-        RINGAX  172             14.7    2.25                    456                     
                  170-        RINGAX  173             15.3    2.25                    456                     
                  171-        RINGAX  174             15.5    2.25                    456                     
                  172-        RINGAX  181             14.5    2.625                   456                     
                  173-        RINGAX  182             14.8    2.625                   456                     
                  174-        RINGAX  183             15.2    2.625                   456                     
                  175-        RINGAX  184             15.5    2.625                   456                     
                  176-        RINGAX  191             14.5    3.0                     456                     
                  177-        RINGAX  192             14.75   3.0                     456                     
                  178-        RINGAX  193             15.0    3.0                     456                     
                  179-        RINGAX  194             15.25   3.0                     456                     
                  180-        RINGAX  195             15.5    3.0                     456                     
                  181-        RINGAX  201             14.5    3.375                   456                     
                  182-        RINGAX  202             14.75   3.375                   456                     
                  183-        RINGAX  203             15.0    3.375                   456                     
                  184-        RINGAX  204             15.25   3.375                   456                     
                  185-        RINGAX  205             15.5    3.375                   456                     
                  186-        RINGAX  211             14.5    3.75                    456                     
                  187-        RINGAX  212             14.75   3.75                    456                     
                  188-        RINGAX  213             15.0    3.75                    456                     
1     ASYMMETRIC PRESSURE LOADING OF AN AXISYMMETRIC CYLINDRICAL SH         /    95 SUN SOLARIS NASTRAN    / MAY 17, 95 / PAGE    10
      NASTRAN DEMONSTRATION PROBLEM NO. D01-15-1A                                                                                   

                                                                                                                                    

                                                  S O R T E D   B U L K    D A T A    E C H O                                       
                     CARD                                                                                                           
                     COUNT        ---1--- +++2+++ ---3--- +++4+++ ---5--- +++6+++ ---7--- +++8+++ ---9--- +++10+++                  
                  189-        RINGAX  214             15.25   3.75                    456                     
                  190-        RINGAX  215             15.5    3.75                    456                     
                  191-        RINGAX  221             14.5    4.125                   456                     
                  192-        RINGAX  222             14.8    4.125                   456                     
                  193-        RINGAX  223             15.2    4.125                   456                     
                  194-        RINGAX  224             15.5    4.125                   456                     
                  195-        RINGAX  231             14.5    4.5                     456                     
                  196-        RINGAX  232             14.7    4.5                     456                     
                  197-        RINGAX  233             15.0    4.5                     456                     
                  198-        RINGAX  234             15.3    4.5                     456                     
                  199-        RINGAX  235             15.5    4.5                     456                     
                  200-        RINGAX  241             14.5    5.5                     456                     
                  201-        RINGAX  242             14.8    5.5                     456                     
                  202-        RINGAX  243             15.0    5.5                     456                     
                  203-        RINGAX  244             15.2    5.5                     456                     
                  204-        RINGAX  245             15.5    5.5                     456                     
                  205-        RINGAX  251             14.5    6.5                     456                     
                  206-        RINGAX  252             14.7    6.5                     456                     
                  207-        RINGAX  253             15.0    6.5                     456                     
                  208-        RINGAX  254             15.3    6.5                     456                     
                  209-        RINGAX  255             15.5    6.5                     456                     
                  210-        RINGAX  261             14.5    7.5                     456                     
                  211-        RINGAX  262             14.8    7.5                     456                     
                  212-        RINGAX  263             15.0    7.5                     456                     
                  213-        RINGAX  264             15.2    7.5                     456                     
                  214-        RINGAX  265             15.5    7.5                     456                     
                  215-        RINGAX  271             14.5    8.5                     456                     
                  216-        RINGAX  272             14.7    8.5                     456                     
                  217-        RINGAX  273             15.0    8.5                     456                     
                  218-        RINGAX  274             15.3    8.5                     456                     
                  219-        RINGAX  275             15.5    8.5                     456                     
                  220-        RINGAX  281             14.5    9.5                     456                     
                  221-        RINGAX  282             14.8    9.5                     456                     
                  222-        RINGAX  283             15.0    9.5                     456                     
                  223-        RINGAX  284             15.2    9.5                     456                     
                  224-        RINGAX  285             15.5    9.5                     456                     
                  225-        RINGAX  291             14.5    10.5                    456                     
                  226-        RINGAX  292             14.7    10.5                    456                     
                  227-        RINGAX  293             15.0    10.5                    456                     
                  228-        RINGAX  294             15.3    10.5                    456                     
                  229-        RINGAX  295             15.5    10.5                    456                     
                  230-        RINGAX  301             14.5    11.5                    456                     
                  231-        RINGAX  302             14.8    11.5                    456                     
                  232-        RINGAX  303             15.0    11.5                    456                     
                  233-        RINGAX  304             15.2    11.5                    456                     
                  234-        RINGAX  305             15.5    11.5                    456                     
                  235-        RINGAX  311             14.5    12.5                    456                     
1     ASYMMETRIC PRESSURE LOADING OF AN AXISYMMETRIC CYLINDRICAL SH         /    95 SUN SOLARIS NASTRAN    / MAY 17, 95 / PAGE    11
      NASTRAN DEMONSTRATION PROBLEM NO. D01-15-1A                                                                                   

                                                                                                                                    

                                                  S O R T E D   B U L K    D A T A    E C H O                                       
                     CARD                                                                                                           
                     COUNT        ---1--- +++2+++ ---3--- +++4+++ ---5--- +++6+++ ---7--- +++8+++ ---9--- +++10+++                  
                  236-        RINGAX  312             14.7    12.5                    456                     
                  237-        RINGAX  313             15.0    12.5                    456                     
                  238-        RINGAX  314             15.3    12.5                    456                     
                  239-        RINGAX  315             15.5    12.5                    456                     
                  240-        RINGAX  321             14.5    13.5                    456                     
                  241-        RINGAX  322             14.8    13.5                    456                     
                  242-        RINGAX  323             15.0    13.5                    456                     
                  243-        RINGAX  324             15.2    13.5                    456                     
                  244-        RINGAX  325             15.5    13.5                    456                     
                  245-        RINGAX  331             14.5    14.5                    456                     
                  246-        RINGAX  332             14.7    14.5                    456                     
                  247-        RINGAX  333             15.0    14.5                    456                     
                  248-        RINGAX  334             15.3    14.5                    456                     
                  249-        RINGAX  335             15.5    14.5                    456                     
                  250-        RINGAX  341             14.5    15.5                    456                     
                  251-        RINGAX  342             14.8    15.5                    456                     
                  252-        RINGAX  343             15.0    15.5                    456                     
                  253-        RINGAX  344             15.2    15.5                    456                     
                  254-        RINGAX  345             15.5    15.5                    456                     
                  255-        RINGAX  351             14.5    16.5                    456                     
                  256-        RINGAX  352             14.7    16.5                    456                     
                  257-        RINGAX  353             15.0    16.5                    456                     
                  258-        RINGAX  354             15.3    16.5                    456                     
                  259-        RINGAX  355             15.5    16.5                    456                     
                  260-        RINGAX  361             14.5    17.5                    456                     
                  261-        RINGAX  362             14.8    17.5                    456                     
                  262-        RINGAX  363             15.0    17.5                    456                     
                  263-        RINGAX  364             15.2    17.5                    456                     
                  264-        RINGAX  365             15.5    17.5                    456                     
                  265-        RINGAX  371             14.5    18.5                    456                     
                  266-        RINGAX  372             14.7    18.5                    456                     
                  267-        RINGAX  373             15.0    18.5                    456                     
                  268-        RINGAX  374             15.3    18.5                    456                     
                  269-        RINGAX  375             15.5    18.5                    456                     
                  270-        RINGAX  381             14.5    19.5                    456                     
                  271-        RINGAX  382             14.8    19.5                    456                     
                  272-        RINGAX  383             15.0    19.5                    456                     
                  273-        RINGAX  384             15.2    19.5                    456                     
                  274-        RINGAX  385             15.5    19.5                    456                     
                  275-        RINGAX  391             14.5    20.5                    456                     
                  276-        RINGAX  392             14.7    20.5                    456                     
                  277-        RINGAX  393             15.0    20.5                    456                     
                  278-        RINGAX  394             15.3    20.5                    456                     
                  279-        RINGAX  395             15.5    20.5                    456                     
                  280-        RINGAX  401             14.5    21.5                    456                     
                  281-        RINGAX  402             14.8    21.5                    456                     
                  282-        RINGAX  403             15.0    21.5                    456                     
1     ASYMMETRIC PRESSURE LOADING OF AN AXISYMMETRIC CYLINDRICAL SH         /    95 SUN SOLARIS NASTRAN    / MAY 17, 95 / PAGE    12
      NASTRAN DEMONSTRATION PROBLEM NO. D01-15-1A                                                                                   

                                                                                                                                    

                                                  S O R T E D   B U L K    D A T A    E C H O                                       
                     CARD                                                                                                           
                     COUNT        ---1--- +++2+++ ---3--- +++4+++ ---5--- +++6+++ ---7--- +++8+++ ---9--- +++10+++                  
                  283-        RINGAX  404             15.2    21.5                    456                     
                  284-        RINGAX  405             15.5    21.5                    456                     
                  285-        RINGAX  411             14.5    22.5                    12456                   
                  286-        RINGAX  412             14.7    22.5                    12456                   
                  287-        RINGAX  413             15.0    22.5                    12456                   
                  288-        RINGAX  414             15.3    22.5                    12456                   
                  289-        RINGAX  415             15.5    22.5                    12456                   
                              ENDDATA
0*** USER INFORMATION MESSAGE - GRID-POINT RESEQUENCING PROCESSOR BANDIT IS NOT USED DUE TO
     THE PRESENCE OF AXISYMMETRIC SOLID DATA
0          **NO ERRORS FOUND - EXECUTE NASTRAN PROGRAM**
0*** USER INFORMATION MESSAGE, PLOT FILE GOES TO PLT2
1     ASYMMETRIC PRESSURE LOADING OF AN AXISYMMETRIC CYLINDRICAL SH         /    95 SUN SOLARIS NASTRAN    / MAY 17, 95 / PAGE    13
      NASTRAN DEMONSTRATION PROBLEM NO. D01-15-1A                                                                                   
0                                                                                                                                   
                                                  MESSAGES FROM THE PLOT MODULE                                                   





 P L O T T E R    D A T A                                                                                                           
                                                                                                                                    
          THE FOLLOWING PLOTS ARE FOR A NASTPLT MICROFILM PLOTTER WITHOUT TYPING CAPABILITY                                         
                                                                                                                                    
          AN END-OF-FILE MARK FOLLOWS THE LAST PLOT                                                                                 
                                                                                                                                    
          THE FIRST COMMAND FOR EACH PLOT CONTAINS THE PLOT NUMBER                                                                  
                                                                                                                                    
          CSCALE =  1.00                                                                                                            
                                                                                                                                    
          THE FOLLOWING PLOTS ARE REQUESTED ON PAPER ONLY                                                                           
                                                                                                                                    




 E N G I N E E R I N G    D A T A                                                                                                   
                                                                                                                                    
          ORTHOGRAPHIC PROJECTION                                                                                                   
          ROTATIONS (DEGREES) - GAMMA =   0.00, BETA =   0.00, ALPHA =   0.00,  AXES = +Z,+X,+Y, SYMMETRIC                          
          SCALE (OBJECT-TO-PLOT SIZE) = 2.819159E-01                                                                                
                                                                                                                                    
          ORIGIN       1   -   X0 =  9.750730E-01, Y0 = -0.437928E+00     (INCHES)                                                  




                                                  PLOT MODULE MESSAGES CONTINUE                                                     
                                                                                                                                    
                                                 PLOT        1  UNDEFORMED SHAPE                                                    
                                                 ORIGIN      1  USED IN THIS PLOT                                                   
1     ASYMMETRIC PRESSURE LOADING OF AN AXISYMMETRIC CYLINDRICAL SH         /    95 SUN SOLARIS NASTRAN    / MAY 17, 95 / PAGE    14
      NASTRAN DEMONSTRATION PROBLEM NO. D01-15-1A                                                                                   
0                                                                                                                                   
                                                  MESSAGES FROM THE PLOT MODULE                                                   





 P L O T T E R    D A T A                                                                                                           
                                                                                                                                    
          THE FOLLOWING PLOTS ARE FOR A NASTPLT MICROFILM PLOTTER WITHOUT TYPING CAPABILITY                                         
                                                                                                                                    
          AN END-OF-FILE MARK FOLLOWS THE LAST PLOT                                                                                 
                                                                                                                                    
          THE FIRST COMMAND FOR EACH PLOT CONTAINS THE PLOT NUMBER                                                                  
                                                                                                                                    
          CSCALE =  1.00                                                                                                            
                                                                                                                                    
          THE FOLLOWING PLOTS ARE REQUESTED ON PAPER ONLY                                                                           
                                                                                                                                    




 E N G I N E E R I N G    D A T A                                                                                                   
                                                                                                                                    
          ORTHOGRAPHIC PROJECTION                                                                                                   
          ROTATIONS (DEGREES) - GAMMA =   0.00, BETA =   0.00, ALPHA =   0.00,  AXES = +Z,+X,+Y, SYMMETRIC                          
          SCALE (OBJECT-TO-PLOT SIZE) = 1.409579E+00                                                                                
                                                                                                                                    
          ORIGIN       1   -   X0 =  9.750730E-01, Y0 = -0.437928E+00     (INCHES)                                                  
          ORIGIN       2   -   X0 =  1.789002E+01, Y0 = -0.437928E+00     (INCHES)                                                  




                                                  PLOT MODULE MESSAGES CONTINUE                                                     
                                                                                                                                    
                                                 PLOT        2  UNDEFORMED SHAPE                                                    
                                                 ORIGIN      2  USED IN THIS PLOT                                                   
1     ASYMMETRIC PRESSURE LOADING OF AN AXISYMMETRIC CYLINDRICAL SH         /    95 SUN SOLARIS NASTRAN    / MAY 17, 95 / PAGE    15
      NASTRAN DEMONSTRATION PROBLEM NO. D01-15-1A                                                                                   

                                                                                                                                    




0*** USER WARNING MESSAGE 2015, EITHER NO ELEMENTS CONNECTED TO EXTERNAL GRID POINT       11
     OR IT IS CONNECTED TO A RIGID ELEMENT OR A GENERAL ELEMENT.
0*** USER WARNING MESSAGE 2015, EITHER NO ELEMENTS CONNECTED TO EXTERNAL GRID POINT       14
     OR IT IS CONNECTED TO A RIGID ELEMENT OR A GENERAL ELEMENT.
0*** USER WARNING MESSAGE 2015, EITHER NO ELEMENTS CONNECTED TO EXTERNAL GRID POINT       21
     OR IT IS CONNECTED TO A RIGID ELEMENT OR A GENERAL ELEMENT.

0*** USER WARNING MESSAGE 2015, EXTERNAL GRID PT.       34 NOT CONNECTED
0*** USER INFORMATION MESSAGE 238, TURN DIAG 38 ON FOR ADDITIONAL ELEMENT PROCESSING INFORMATION

0*** USER INFORMATION MESSAGE 3113,
     EMG MODULE PROCESSING DOUBLE PRECISION TRAPAX   ELEMENTS (ELEMENT TYPE  71) STARTING WITH ID   111001
0*** USER INFORMATION MESSAGE 3113,
     EMG MODULE PROCESSING DOUBLE PRECISION TRIAAX   ELEMENTS (ELEMENT TYPE  70) STARTING WITH ID   181001
0*** USER INFORMATION MESSAGE 3035
     FOR SUBCASE NUMBER     1, EPSILON SUB E =  -8.2589650E-11
1     ASYMMETRIC PRESSURE LOADING OF AN AXISYMMETRIC CYLINDRICAL SH         /    95 SUN SOLARIS NASTRAN    / MAY 17, 95 / PAGE    16
      NASTRAN DEMONSTRATION PROBLEM NO. D01-15-1A                                                                                   
0                                                                                                                                   
 
                                             D I S P L A C E M E N T   V E C T O R
     SECTOR-ID
      POINT-ID
       RING-ID  HARMONIC        T1             T2             T3             R1             R2             R3
            11            -2.725171E-02   0.0            0.0            0.0            0.0            0.0                           
            14            -2.713255E-02   0.0            0.0            0.0            0.0            0.0                           
            21            -2.717048E-02   0.0            1.396160E-04   0.0            0.0            0.0                           
            34            -2.682227E-02   0.0           -4.904729E-04   0.0            0.0            0.0                           
           111      0     -5.469031E-04   0.0            0.0            0.0            0.0            0.0                           
           112      0     -5.469223E-04   0.0            0.0            0.0            0.0            0.0                           
           113      0     -5.417446E-04   0.0            0.0            0.0            0.0            0.0                           
           114      0     -5.379575E-04   0.0            0.0            0.0            0.0            0.0                           
           121      0     -5.421539E-04   0.0            1.611814E-05   0.0            0.0            0.0                           
           122      0     -5.417241E-04   0.0            9.026005E-06   0.0            0.0            0.0                           
           123      0     -5.380376E-04   0.0           -6.277682E-08   0.0            0.0            0.0                           
           124      0     -5.335253E-04   0.0           -7.074076E-06   0.0            0.0            0.0                           
           131      0     -5.281530E-04   0.0            3.183430E-05   0.0            0.0            0.0                           
           132      0     -5.280495E-04   0.0            2.220947E-05   0.0            0.0            0.0                           
           133      0     -5.231100E-04   0.0           -4.415109E-06   0.0            0.0            0.0                           
           134      0     -5.195902E-04   0.0           -1.387959E-05   0.0            0.0            0.0                           
           141      0     -5.054295E-04   0.0            4.594490E-05   0.0            0.0            0.0                           
           142      0     -5.047426E-04   0.0            2.594963E-05   0.0            0.0            0.0                           
           143      0     -5.013819E-04   0.0            3.729274E-07   0.0            0.0            0.0                           
           144      0     -4.975643E-04   0.0           -1.945116E-05   0.0            0.0            0.0                           
           151      0     -4.750075E-04   0.0            5.877490E-05   0.0            0.0            0.0                           
           152      0     -4.744983E-04   0.0            4.128708E-05   0.0            0.0            0.0                           
           153      0     -4.701629E-04   0.0           -6.802749E-06   0.0            0.0            0.0                           
           154      0     -4.675107E-04   0.0           -2.424261E-05   0.0            0.0            0.0                           
           161      0     -4.385516E-04   0.0            6.827281E-05   0.0            0.0            0.0                           
           162      0     -4.371820E-04   0.0            3.946848E-05   0.0            0.0            0.0                           
           163      0     -4.340140E-04   0.0            2.468377E-06   0.0            0.0            0.0                           
           164      0     -4.309291E-04   0.0           -2.647610E-05   0.0            0.0            0.0                           
           171      0     -3.982515E-04   0.0            7.587229E-05   0.0            0.0            0.0                           
           172      0     -3.971026E-04   0.0            5.423255E-05   0.0            0.0            0.0                           
           173      0     -3.924145E-04   0.0           -5.896935E-06   0.0            0.0            0.0                           
           174      0     -3.903509E-04   0.0           -2.739516E-05   0.0            0.0            0.0                           
           181      0     -3.559901E-04   0.0            7.995249E-05   0.0            0.0            0.0                           
           182      0     -3.540304E-04   0.0            4.766057E-05   0.0            0.0            0.0                           
           183      0     -3.512069E-04   0.0            6.246914E-06   0.0            0.0            0.0                           
           184      0     -3.490655E-04   0.0           -2.568289E-05   0.0            0.0            0.0                           
           191      0     -3.142677E-04   0.0            8.200743E-05   0.0            0.0            0.0                           
           192      0     -3.122963E-04   0.0            5.545765E-05   0.0            0.0            0.0                           
           193      0     -3.107817E-04   0.0            2.938565E-05   0.0            0.0            0.0                           
           194      0     -3.091996E-04   0.0            3.524853E-06   0.0            0.0            0.0                           
           195      0     -3.080492E-04   0.0           -2.271347E-05   0.0            0.0            0.0                           
           201      0     -2.732557E-04   0.0            8.243632E-05   0.0            0.0            0.0                           
           202      0     -2.718244E-04   0.0            5.706676E-05   0.0            0.0            0.0                           
           203      0     -2.700643E-04   0.0            3.145271E-05   0.0            0.0            0.0                           
           204      0     -2.691215E-04   0.0            6.513757E-06   0.0            0.0            0.0                           
           205      0     -2.680303E-04   0.0           -1.903129E-05   0.0            0.0            0.0                           
           211      0     -2.350818E-04   0.0            8.194652E-05   0.0            0.0            0.0                           
1     ASYMMETRIC PRESSURE LOADING OF AN AXISYMMETRIC CYLINDRICAL SH         /    95 SUN SOLARIS NASTRAN    / MAY 17, 95 / PAGE    17
      NASTRAN DEMONSTRATION PROBLEM NO. D01-15-1A                                                                                   
0                                                                                                                                   
 
                                             D I S P L A C E M E N T   V E C T O R
     SECTOR-ID
      POINT-ID
       RING-ID  HARMONIC        T1             T2             T3             R1             R2             R3
           212      0     -2.329640E-04   0.0            5.775100E-05   0.0            0.0            0.0                           
           213      0     -2.316318E-04   0.0            3.352477E-05   0.0            0.0            0.0                           
           214      0     -2.306804E-04   0.0            9.609922E-06   0.0            0.0            0.0                           
           215      0     -2.305112E-04   0.0           -1.445751E-05   0.0            0.0            0.0                           
           221      0     -1.986081E-04   0.0            8.029921E-05   0.0            0.0            0.0                           
           222      0     -1.967607E-04   0.0            5.307191E-05   0.0            0.0            0.0                           
           223      0     -1.951992E-04   0.0            1.730681E-05   0.0            0.0            0.0                           
           224      0     -1.946242E-04   0.0           -9.622861E-06   0.0            0.0            0.0                           
           231      0     -1.658351E-04   0.0            7.775560E-05   0.0            0.0            0.0                           
           235      0     -1.623857E-04   0.0           -4.456610E-06   0.0            0.0            0.0                           
           241      0     -9.223618E-05   0.0            7.017923E-05   0.0            0.0            0.0                           
           245      0     -9.046926E-05   0.0            7.920604E-06   0.0            0.0            0.0                           
           251      0     -3.995549E-05   0.0            6.162796E-05   0.0            0.0            0.0                           
           255      0     -3.918159E-05   0.0            1.882546E-05   0.0            0.0            0.0                           
           261      0     -6.055541E-06   0.0            5.385317E-05   0.0            0.0            0.0                           
           265      0     -5.954656E-06   0.0            2.729768E-05   0.0            0.0            0.0                           
           271      0      1.308115E-05   0.0            4.732625E-05   0.0            0.0            0.0                           
           275      0      1.281218E-05   0.0            3.351854E-05   0.0            0.0            0.0                           
           281      0      2.160022E-05   0.0            4.266165E-05   0.0            0.0            0.0                           
           285      0      2.116444E-05   0.0            3.738009E-05   0.0            0.0            0.0                           
           291      0      2.322061E-05   0.0            3.938646E-05   0.0            0.0            0.0                           
           295      0      2.275789E-05   0.0            3.969380E-05   0.0            0.0            0.0                           
           301      0      2.084170E-05   0.0            3.753785E-05   0.0            0.0            0.0                           
           305      0      2.042745E-05   0.0            4.063125E-05   0.0            0.0            0.0                           
           311      0      1.667983E-05   0.0            3.655089E-05   0.0            0.0            0.0                           
           315      0      1.634982E-05   0.0            4.085834E-05   0.0            0.0            0.0                           
           321      0      1.208777E-05   0.0            3.628221E-05   0.0            0.0            0.0                           
           325      0      1.184941E-05   0.0            4.055725E-05   0.0            0.0            0.0                           
           331      0      7.940162E-06   0.0            3.637022E-05   0.0            0.0            0.0                           
           335      0      7.784040E-06   0.0            4.007944E-05   0.0            0.0            0.0                           
           341      0      4.588450E-06   0.0            3.667792E-05   0.0            0.0            0.0                           
           345      0      4.498935E-06   0.0            3.953496E-05   0.0            0.0            0.0                           
           351      0      2.161722E-06   0.0            3.705042E-05   0.0            0.0            0.0                           
           355      0      2.119828E-06   0.0            3.903989E-05   0.0            0.0            0.0                           
           361      0      5.790248E-07   0.0            3.740845E-05   0.0            0.0            0.0                           
           365      0      5.684814E-07   0.0            3.863783E-05   0.0            0.0            0.0                           
           371      0     -2.978372E-07   0.0            3.771954E-05   0.0            0.0            0.0                           
           375      0     -2.914345E-07   0.0            3.832925E-05   0.0            0.0            0.0                           
           381      0     -6.424745E-07   0.0            3.795162E-05   0.0            0.0            0.0                           
           385      0     -6.293026E-07   0.0            3.812174E-05   0.0            0.0            0.0                           
           391      0     -6.172078E-07   0.0            3.811877E-05   0.0            0.0            0.0                           
           395      0     -6.047889E-07   0.0            3.798357E-05   0.0            0.0            0.0                           
           401      0     -3.624995E-07   0.0            3.821006E-05   0.0            0.0            0.0                           
           405      0     -3.551966E-07   0.0            3.791386E-05   0.0            0.0            0.0                           
           411      0      0.0            0.0            3.824411E-05   0.0            0.0            0.0                           
           412      0      0.0            0.0            3.816782E-05   0.0            0.0            0.0                           
           413      0      0.0            0.0            3.806505E-05   0.0            0.0            0.0                           
1     ASYMMETRIC PRESSURE LOADING OF AN AXISYMMETRIC CYLINDRICAL SH         /    95 SUN SOLARIS NASTRAN    / MAY 17, 95 / PAGE    18
      NASTRAN DEMONSTRATION PROBLEM NO. D01-15-1A                                                                                   
0                                                                                                                                   
 
                                             D I S P L A C E M E N T   V E C T O R
     SECTOR-ID
      POINT-ID
       RING-ID  HARMONIC        T1             T2             T3             R1             R2             R3
           414      0      0.0            0.0            3.796290E-05   0.0            0.0            0.0                           
           415      0      0.0            0.0            3.788779E-05   0.0            0.0            0.0                           
           111      1     -2.023812E-03   1.082920E-03   0.0            0.0            0.0            0.0                           
           112      1     -2.022980E-03   1.070008E-03   0.0            0.0            0.0            0.0                           
           113      1     -2.008777E-03   1.033198E-03   0.0            0.0            0.0            0.0                           
           114      1     -1.999541E-03   1.020594E-03   0.0            0.0            0.0            0.0                           
           121      1     -2.013813E-03   1.081568E-03   2.485723E-05   0.0            0.0            0.0                           
           122      1     -2.011517E-03   1.062935E-03   9.900688E-06   0.0            0.0            0.0                           
           123      1     -2.001585E-03   1.038470E-03  -9.301376E-06   0.0            0.0            0.0                           
           124      1     -1.990172E-03   1.020161E-03  -2.409581E-05   0.0            0.0            0.0                           
           131      1     -1.984361E-03   1.078282E-03   4.894155E-05   0.0            0.0            0.0                           
           132      1     -1.983281E-03   1.065846E-03   2.865407E-05   0.0            0.0            0.0                           
           133      1     -1.969558E-03   1.030321E-03  -2.767655E-05   0.0            0.0            0.0                           
           134      1     -1.960860E-03   1.018182E-03  -4.764227E-05   0.0            0.0            0.0                           
           141      1     -1.936454E-03   1.072428E-03   6.986472E-05   0.0            0.0            0.0                           
           142      1     -1.933639E-03   1.055100E-03   2.754114E-05   0.0            0.0            0.0                           
           143      1     -1.924362E-03   1.032334E-03  -2.670683E-05   0.0            0.0            0.0                           
           144      1     -1.914347E-03   1.015310E-03  -6.868541E-05   0.0            0.0            0.0                           
           151      1     -1.872179E-03   1.064779E-03   8.831793E-05   0.0            0.0            0.0                           
           152      1     -1.870282E-03   1.053689E-03   5.124283E-05   0.0            0.0            0.0                           
           153      1     -1.857776E-03   1.021782E-03  -5.116055E-05   0.0            0.0            0.0                           
           154      1     -1.850824E-03   1.010963E-03  -8.812908E-05   0.0            0.0            0.0                           
           161      1     -1.794786E-03   1.054954E-03   1.002051E-04   0.0            0.0            0.0                           
           162      1     -1.790610E-03   1.040000E-03   3.864597E-05   0.0            0.0            0.0                           
           163      1     -1.781734E-03   1.020317E-03  -4.057406E-05   0.0            0.0            0.0                           
           164      1     -1.773219E-03   1.005650E-03  -1.023793E-04   0.0            0.0            0.0                           
           171      1     -1.708693E-03   1.043624E-03   1.084029E-04   0.0            0.0            0.0                           
           172      1     -1.705499E-03   1.034442E-03   6.194985E-05   0.0            0.0            0.0                           
           173      1     -1.692396E-03   1.007888E-03  -6.776991E-05   0.0            0.0            0.0                           
           174      1     -1.686629E-03   9.989867E-04  -1.139635E-04   0.0            0.0            0.0                           
           181      1     -1.617645E-03   1.030338E-03   1.095919E-04   0.0            0.0            0.0                           
           182      1     -1.612274E-03   1.018731E-03   3.955777E-05   0.0            0.0            0.0                           
           183      1     -1.604091E-03   1.002965E-03  -5.060148E-05   0.0            0.0            0.0                           
           184      1     -1.597555E-03   9.914088E-04  -1.203000E-04   0.0            0.0            0.0                           
           191      1     -1.526690E-03   1.016436E-03   1.066872E-04   0.0            0.0            0.0                           
           192      1     -1.521576E-03   1.008050E-03   4.878697E-05   0.0            0.0            0.0                           
           193      1     -1.517114E-03   9.992631E-04  -8.916278E-06   0.0            0.0            0.0                           
           194      1     -1.512230E-03   9.907081E-04  -6.584316E-05   0.0            0.0            0.0                           
           195      1     -1.507909E-03   9.821594E-04  -1.235802E-04   0.0            0.0            0.0                           
           201      1     -1.435992E-03   9.999756E-04   9.990401E-05   0.0            0.0            0.0                           
           202      1     -1.432360E-03   9.952766E-04   4.566492E-05   0.0            0.0            0.0                           
           203      1     -1.427629E-03   9.862923E-04  -1.310840E-05   0.0            0.0            0.0                           
           204      1     -1.423853E-03   9.792371E-04  -6.853170E-05   0.0            0.0            0.0                           
           205      1     -1.419895E-03   9.720632E-04  -1.254705E-04   0.0            0.0            0.0                           
           211      1     -1.350139E-03   9.870441E-04   9.372631E-05   0.0            0.0            0.0                           
           212      1     -1.345098E-03   9.814553E-04   3.957934E-05   0.0            0.0            0.0                           
           213      1     -1.341013E-03   9.741326E-04  -1.621949E-05   0.0            0.0            0.0                           
1     ASYMMETRIC PRESSURE LOADING OF AN AXISYMMETRIC CYLINDRICAL SH         /    95 SUN SOLARIS NASTRAN    / MAY 17, 95 / PAGE    19
      NASTRAN DEMONSTRATION PROBLEM NO. D01-15-1A                                                                                   
0                                                                                                                                   
 
                                             D I S P L A C E M E N T   V E C T O R
     SECTOR-ID
      POINT-ID
       RING-ID  HARMONIC        T1             T2             T3             R1             R2             R3
           214      1     -1.337620E-03   9.675386E-04  -7.074579E-05   0.0            0.0            0.0                           
           215      1     -1.335258E-03   9.613029E-04  -1.254581E-04   0.0            0.0            0.0                           
           221      1     -1.267173E-03   9.704357E-04   8.438526E-05   0.0            0.0            0.0                           
           222      1     -1.261734E-03   9.641183E-04   2.127889E-05   0.0            0.0            0.0                           
           223      1     -1.256258E-03   9.554587E-04  -6.208143E-05   0.0            0.0            0.0                           
           224      1     -1.253053E-03   9.493112E-04  -1.247464E-04   0.0            0.0            0.0                           
           231      1     -1.189796E-03   9.531777E-04   7.307191E-05   0.0            0.0            0.0                           
           235      1     -1.176947E-03   9.361667E-04  -1.230221E-04   0.0            0.0            0.0                           
           241      1     -1.007994E-03   9.045953E-04   4.096163E-05   0.0            0.0            0.0                           
           245      1     -9.987068E-04   8.972173E-04  -1.201426E-04   0.0            0.0            0.0                           
           251      1     -8.642232E-04   8.545169E-04   7.768960E-06   0.0            0.0            0.0                           
           255      1     -8.571889E-04   8.535925E-04  -1.185341E-04   0.0            0.0            0.0                           
           261      1     -7.536694E-04   8.035122E-04  -2.327952E-05   0.0            0.0            0.0                           
           265      1     -7.483101E-04   8.066737E-04  -1.201170E-04   0.0            0.0            0.0                           
           271      1     -6.700419E-04   7.520493E-04  -5.104342E-05   0.0            0.0            0.0                           
           275      1     -6.657694E-04   7.575683E-04  -1.246653E-04   0.0            0.0            0.0                           
[...]
0    217        4               1.307E-01 -3.377E+00 -6.517E+00  1.006E-01 -1.022E-01  7.847E-01  0.000E+00  0.000E+00  0.000E+00   
0    217        5               9.111E-02 -1.696E+00 -4.476E+00  7.005E-02 -9.866E-02  9.920E-01  0.000E+00  0.000E+00  0.000E+00   
0    217        6               5.899E-02 -7.956E-01 -3.094E+00  4.224E-02 -8.415E-02  9.614E-01  0.000E+00  0.000E+00  0.000E+00   
0    217        7               3.685E-02 -3.247E-01 -2.168E+00  2.268E-02 -6.829E-02  8.311E-01  0.000E+00  0.000E+00  0.000E+00   
1     ASYMMETRIC PRESSURE LOADING OF AN AXISYMMETRIC CYLINDRICAL SH         /    95 SUN SOLARIS NASTRAN    / MAY 17, 95 / PAGE   302
      NASTRAN DEMONSTRATION PROBLEM NO. D01-15-1A                                                                                   
0                                                                                                                                   
 
     S T R E S S E S  I N  A X I S - S Y M M E T R I C  T R I A N G U L A R  R I N G  E L E M E N T S  (CTRIAAX)
 
 ELEMENT   HARMONIC    POINT    RADIAL      AXIAL      CIRCUM.     SHEAR      SHEAR      SHEAR      F L U X   D E N S I T I E S
 ID.       NUMBER      ANGLE     (R)         (Z)     (THETA-T)    (ZR)       (RT)       (ZT)        (R)        (Z)        (T)
0    217        8               2.255E-02 -8.858E-02 -1.539E+00  1.042E-02 -5.422E-02  6.808E-01  0.000E+00  0.000E+00  0.000E+00   
0    217        9               1.352E-02  2.345E-02 -1.103E+00  3.183E-03 -4.260E-02  5.415E-01  0.000E+00  0.000E+00  0.000E+00   
0    217       10               7.884E-03  7.079E-02 -7.962E-01 -8.545E-04 -3.326E-02  4.231E-01  0.000E+00  0.000E+00  0.000E+00   
0    217                0.0000  7.466E-01 -1.811E+01 -3.465E+01  5.160E-01  0.000E+00  0.000E+00  0.000E+00  0.000E+00  0.000E+00   
0    217                3.5810  7.199E-01 -1.769E+01 -3.312E+01  4.993E-01 -2.222E-01  1.980E+00  0.000E+00  0.000E+00  0.000E+00   
0    217                7.1620  6.436E-01 -1.643E+01 -2.879E+01  4.509E-01 -4.085E-01  3.540E+00  0.000E+00  0.000E+00  0.000E+00   
0    221        0              -4.007E-02 -7.800E-01 -1.053E+00  1.173E-01  0.000E+00  0.000E+00  0.000E+00  0.000E+00  0.000E+00   
0    221        1              -5.878E-02 -2.622E+00 -1.978E+00  2.022E-01  1.259E-03 -1.292E+00  0.000E+00  0.000E+00  0.000E+00   
0    221        2               1.201E-01 -3.907E+00  1.237E+00  7.335E-02  5.841E-02 -2.738E+00  0.000E+00  0.000E+00  0.000E+00   
0    221        3               3.590E-01 -2.712E-01  8.033E+00  6.845E-02  1.773E-01 -3.266E+00  0.000E+00  0.000E+00  0.000E+00   
0    221        4               2.717E-01  8.652E-01  6.801E+00  1.512E-01  1.945E-01 -2.811E+00  0.000E+00  0.000E+00  0.000E+00   
0    221        5               1.809E-01  6.293E-01  4.842E+00  1.744E-01  1.770E-01 -2.185E+00  0.000E+00  0.000E+00  0.000E+00   
0    221        6               1.164E-01  3.308E-01  3.370E+00  1.660E-01  1.465E-01 -1.603E+00  0.000E+00  0.000E+00  0.000E+00   
0    221        7               7.354E-02  1.310E-01  2.331E+00  1.434E-01  1.159E-01 -1.158E+00  0.000E+00  0.000E+00  0.000E+00   
0    221        8               4.606E-02  1.920E-02  1.615E+00  1.173E-01  8.957E-02 -8.340E-01  0.000E+00  0.000E+00  0.000E+00   
0    221        9               2.862E-02 -3.584E-02  1.123E+00  9.284E-02  6.836E-02 -6.015E-01  0.000E+00  0.000E+00  0.000E+00   
0    221       10               1.757E-02 -5.818E-02  7.834E-01  7.194E-02  5.173E-02 -4.344E-01  0.000E+00  0.000E+00  0.000E+00   
0    221                0.0000  1.115E+00 -5.699E+00  2.711E+01  1.378E+00  0.000E+00  0.000E+00  0.000E+00  0.000E+00  0.000E+00   
0    221                3.5810  1.062E+00 -5.737E+00  2.554E+01  1.296E+00  3.554E-01 -4.451E+00  0.000E+00  0.000E+00  0.000E+00   
0    221                7.1620  9.122E-01 -5.847E+00  2.112E+01  1.066E+00  6.513E-01 -8.299E+00  0.000E+00  0.000E+00  0.000E+00   
0    222        0              -3.465E-02 -4.812E-01 -1.003E+00 -6.588E-02  0.000E+00  0.000E+00  0.000E+00  0.000E+00  0.000E+00   
0    222        1              -1.522E-02 -2.167E+00 -1.913E+00 -7.986E-02 -5.597E-02 -1.213E+00  0.000E+00  0.000E+00  0.000E+00   
0    222        2               1.687E-01 -4.264E+00  5.204E-01  1.104E-01 -1.042E-01 -2.497E+00  0.000E+00  0.000E+00  0.000E+00   
1     ASYMMETRIC PRESSURE LOADING OF AN AXISYMMETRIC CYLINDRICAL SH         /    95 SUN SOLARIS NASTRAN    / MAY 17, 95 / PAGE   303
      NASTRAN DEMONSTRATION PROBLEM NO. D01-15-1A                                                                                   
0                                                                                                                                   
 
     S T R E S S E S  I N  A X I S - S Y M M E T R I C  T R I A N G U L A R  R I N G  E L E M E N T S  (CTRIAAX)
 
 ELEMENT   HARMONIC    POINT    RADIAL      AXIAL      CIRCUM.     SHEAR      SHEAR      SHEAR      F L U X   D E N S I T I E S
 ID.       NUMBER      ANGLE     (R)         (Z)     (THETA-T)    (ZR)       (RT)       (ZT)        (R)        (Z)        (T)
0    222        3               2.013E-01 -1.361E+00  5.860E+00  1.813E-01 -2.283E-02 -2.845E+00  0.000E+00  0.000E+00  0.000E+00   
0    222        4               7.537E-02  1.903E-01  5.098E+00  1.210E-01 -2.207E-02 -2.356E+00  0.000E+00  0.000E+00  0.000E+00   
0    222        5               8.829E-03  2.890E-01  3.692E+00  7.726E-02 -3.336E-02 -1.770E+00  0.000E+00  0.000E+00  0.000E+00   
0    222        6              -2.138E-02  1.931E-01  2.604E+00  4.240E-02 -3.120E-02 -1.266E+00  0.000E+00  0.000E+00  0.000E+00   
0    222        7              -3.194E-02  1.012E-01  1.821E+00  2.011E-02 -2.529E-02 -8.964E-01  0.000E+00  0.000E+00  0.000E+00   
0    222        8              -3.295E-02  4.063E-02  1.274E+00  7.491E-03 -1.937E-02 -6.366E-01  0.000E+00  0.000E+00  0.000E+00   
0    222        9              -2.987E-02  6.073E-03  8.938E-01  8.655E-04 -1.443E-02 -4.542E-01  0.000E+00  0.000E+00  0.000E+00   
0    222       10              -2.539E-02 -1.144E-02  6.290E-01 -2.306E-03 -1.059E-02 -3.253E-01  0.000E+00  0.000E+00  0.000E+00   
0    222                0.0000  2.628E-01 -7.463E+00  1.948E+01  4.128E-01  0.000E+00  0.000E+00  0.000E+00  0.000E+00  0.000E+00   
0    222                3.5810  2.732E-01 -7.448E+00  1.827E+01  3.959E-01 -8.178E-02 -3.626E+00  0.000E+00  0.000E+00  0.000E+00   
0    222                7.1620  2.995E-01 -7.400E+00  1.487E+01  3.470E-01 -1.513E-01 -6.781E+00  0.000E+00  0.000E+00  0.000E+00   
0    223        0              -1.992E-02 -2.916E-01 -8.783E-01  1.392E-01  0.000E+00  0.000E+00  0.000E+00  0.000E+00  0.000E+00   
0    223        1              -4.191E-02 -1.858E+00 -1.724E+00  2.763E-01  1.104E-02 -1.121E+00  0.000E+00  0.000E+00  0.000E+00   
0    223        2               5.438E-02 -4.496E+00 -4.266E-01  2.584E-01  1.906E-01 -2.162E+00  0.000E+00  0.000E+00  0.000E+00   
0    223        3               2.605E-01 -2.253E+00  2.733E+00  3.508E-01  6.494E-01 -2.234E+00  0.000E+00  0.000E+00  0.000E+00   
0    223        4               2.036E-01 -3.967E-01  2.566E+00  4.236E-01  6.618E-01 -1.748E+00  0.000E+00  0.000E+00  0.000E+00   
0    223        5               1.366E-01 -2.944E-02  1.905E+00  4.137E-01  5.531E-01 -1.244E+00  0.000E+00  0.000E+00  0.000E+00   
0    223        6               9.112E-02  3.327E-02  1.351E+00  3.603E-01  4.333E-01 -8.460E-01  0.000E+00  0.000E+00  0.000E+00   
0    223        7               6.105E-02  2.807E-02  9.401E-01  2.945E-01  3.296E-01 -5.744E-01  0.000E+00  0.000E+00  0.000E+00   
0    223        8               4.125E-02  1.259E-02  6.505E-01  2.324E-01  2.474E-01 -3.936E-01  0.000E+00  0.000E+00  0.000E+00   
0    223        9               2.808E-02  4.488E-04  4.501E-01  1.794E-01  1.845E-01 -2.725E-01  0.000E+00  0.000E+00  0.000E+00   
0    223       10               1.923E-02 -6.734E-03  3.120E-01  1.365E-01  1.369E-01 -1.902E-01  0.000E+00  0.000E+00  0.000E+00   
0    223                0.0000  8.339E-01 -9.259E+00  7.879E+00  3.065E+00  0.000E+00  0.000E+00  0.000E+00  0.000E+00  0.000E+00   
1     ASYMMETRIC PRESSURE LOADING OF AN AXISYMMETRIC CYLINDRICAL SH         /    95 SUN SOLARIS NASTRAN    / MAY 17, 95 / PAGE   304
      NASTRAN DEMONSTRATION PROBLEM NO. D01-15-1A                                                                                   
0                                                                                                                                   
 
     S T R E S S E S  I N  A X I S - S Y M M E T R I C  T R I A N G U L A R  R I N G  E L E M E N T S  (CTRIAAX)
 
 ELEMENT   HARMONIC    POINT    RADIAL      AXIAL      CIRCUM.     SHEAR      SHEAR      SHEAR      F L U X   D E N S I T I E S
 ID.       NUMBER      ANGLE     (R)         (Z)     (THETA-T)    (ZR)       (RT)       (ZT)        (R)        (Z)        (T)
0    223                3.5810  7.910E-01 -9.172E+00  7.276E+00  2.889E+00  1.075E+00 -2.569E+00  0.000E+00  0.000E+00  0.000E+00   
0    223                7.1620  6.692E-01 -8.914E+00  5.573E+00  2.396E+00  1.980E+00 -4.834E+00  0.000E+00  0.000E+00  0.000E+00   
0    224        0               6.380E-03 -2.020E-02 -8.260E-01 -2.502E-02  0.000E+00  0.000E+00  0.000E+00  0.000E+00  0.000E+00   
0    224        1               7.709E-03 -1.371E+00 -1.646E+00 -2.312E-02 -7.933E-02 -1.001E+00  0.000E+00  0.000E+00  0.000E+00   
0    224        2               4.613E-02 -4.679E+00 -1.443E+00  9.598E-02 -9.096E-02 -1.795E+00  0.000E+00  0.000E+00  0.000E+00   
0    224        3               1.631E-01 -3.384E+00 -4.926E-01  1.992E-01  1.552E-01 -1.554E+00  0.000E+00  0.000E+00  0.000E+00   
0    224        4               1.391E-01 -1.167E+00 -7.497E-03  2.161E-01  1.681E-01 -1.037E+00  0.000E+00  0.000E+00  0.000E+00   
0    224        5               9.689E-02 -4.417E-01  1.314E-01  1.923E-01  1.279E-01 -6.170E-01  0.000E+00  0.000E+00  0.000E+00   
0    224        6               6.529E-02 -1.581E-01  1.397E-01  1.495E-01  9.766E-02 -3.443E-01  0.000E+00  0.000E+00  0.000E+00   
0    224        7               4.376E-02 -4.281E-02  1.098E-01  1.104E-01  7.475E-02 -1.897E-01  0.000E+00  0.000E+00  0.000E+00   
0    224        8               2.938E-02  2.033E-03  7.756E-02  8.001E-02  5.724E-02 -1.044E-01  0.000E+00  0.000E+00  0.000E+00   
0    224        9               1.982E-02  1.727E-02  5.220E-02  5.765E-02  4.379E-02 -5.728E-02  0.000E+00  0.000E+00  0.000E+00   
0    224       10               1.341E-02  2.029E-02  3.423E-02  4.145E-02  3.340E-02 -3.112E-02  0.000E+00  0.000E+00  0.000E+00   
0    224                0.0000  6.309E-01 -1.122E+01 -3.870E+00  1.095E+00  0.000E+00  0.000E+00  0.000E+00  0.000E+00  0.000E+00   
0    224                3.5810  6.009E-01 -1.106E+01 -3.897E+00  1.027E+00  2.313E-01 -1.328E+00  0.000E+00  0.000E+00  0.000E+00   
0    224                7.1620  5.156E-01 -1.057E+01 -3.968E+00  8.374E-01  4.232E-01 -2.546E+00  0.000E+00  0.000E+00  0.000E+00   
0    225        0               1.077E-02  2.894E-01 -6.722E-01  1.364E-01  0.000E+00  0.000E+00  0.000E+00  0.000E+00  0.000E+00   
0    225        1               7.703E-03 -8.565E-01 -1.392E+00  2.455E-01 -1.365E-02 -8.862E-01  0.000E+00  0.000E+00  0.000E+00   
0    225        2              -3.187E-02 -4.950E+00 -2.332E+00  1.648E-01  1.387E-01 -1.387E+00  0.000E+00  0.000E+00  0.000E+00   
0    225        3              -4.434E-02 -4.571E+00 -3.592E+00  2.804E-01  5.879E-01 -8.291E-01  0.000E+00  0.000E+00  0.000E+00   
0    225        4              -3.940E-02 -1.954E+00 -2.507E+00  3.939E-01  6.151E-01 -3.156E-01  0.000E+00  0.000E+00  0.000E+00   
0    225        5              -2.834E-02 -8.649E-01 -1.609E+00  3.981E-01  5.211E-01  9.570E-03  0.000E+00  0.000E+00  0.000E+00   
0    225        6              -1.656E-02 -3.582E-01 -1.058E+00  3.512E-01  4.119E-01  1.533E-01  0.000E+00  0.000E+00  0.000E+00   
1     ASYMMETRIC PRESSURE LOADING OF AN AXISYMMETRIC CYLINDRICAL SH         /    95 SUN SOLARIS NASTRAN    / MAY 17, 95 / PAGE   305
      NASTRAN DEMONSTRATION PROBLEM NO. D01-15-1A                                                                                   
0                                                                                                                                   
 
     S T R E S S E S  I N  A X I S - S Y M M E T R I C  T R I A N G U L A R  R I N G  E L E M E N T S  (CTRIAAX)
 
 ELEMENT   HARMONIC    POINT    RADIAL      AXIAL      CIRCUM.     SHEAR      SHEAR      SHEAR      F L U X   D E N S I T I E S
 ID.       NUMBER      ANGLE     (R)         (Z)     (THETA-T)    (ZR)       (RT)       (ZT)        (R)        (Z)        (T)
0    225        7              -8.357E-03 -1.207E-01 -7.155E-01  2.889E-01  3.151E-01  1.897E-01  0.000E+00  0.000E+00  0.000E+00   
0    225        8              -3.428E-03 -1.399E-02 -4.943E-01  2.287E-01  2.374E-01  1.796E-01  0.000E+00  0.000E+00  0.000E+00   
0    225        9              -6.980E-04  2.993E-02 -3.461E-01  1.769E-01  1.774E-01  1.532E-01  0.000E+00  0.000E+00  0.000E+00   
0    225       10               6.880E-04  4.420E-02 -2.443E-01  1.348E-01  1.318E-01  1.240E-01  0.000E+00  0.000E+00  0.000E+00   
0    225                0.0000 -1.538E-01 -1.333E+01 -1.496E+01  2.800E+00  0.000E+00  0.000E+00  0.000E+00  0.000E+00  0.000E+00   
0    225                3.5810 -1.479E-01 -1.308E+01 -1.442E+01  2.629E+00  1.008E+00 -8.106E-02  0.000E+00  0.000E+00  0.000E+00   
0    225                7.1620 -1.307E-01 -1.235E+01 -1.289E+01  2.154E+00  1.855E+00 -2.458E-01  0.000E+00  0.000E+00  0.000E+00   
0    226        0               7.112E-02  4.538E-01 -6.426E-01 -6.191E-02  0.000E+00  0.000E+00  0.000E+00  0.000E+00  0.000E+00   
0    226        1               1.304E-01 -5.818E-01 -1.358E+00 -8.586E-02 -5.533E-02 -8.121E-01  0.000E+00  0.000E+00  0.000E+00   
0    226        2               8.842E-02 -5.177E+00 -3.289E+00  8.118E-02 -1.029E-01 -1.142E+00  0.000E+00  0.000E+00  0.000E+00   
0    226        3               1.066E-01 -5.439E+00 -6.562E+00  1.797E-01 -3.734E-02 -3.260E-01  0.000E+00  0.000E+00  0.000E+00   
0    226        4               1.346E-01 -2.506E+00 -4.887E+00  1.283E-01 -4.243E-02  2.251E-01  0.000E+00  0.000E+00  0.000E+00   
0    226        5               1.304E-01 -1.148E+00 -3.268E+00  8.156E-02 -5.241E-02  4.927E-01  0.000E+00  0.000E+00  0.000E+00   
0    226        6               1.142E-01 -4.886E-01 -2.211E+00  4.395E-02 -4.759E-02  5.453E-01  0.000E+00  0.000E+00  0.000E+00   
0    226        7               9.445E-02 -1.708E-01 -1.522E+00  1.999E-02 -3.869E-02  4.942E-01  0.000E+00  0.000E+00  0.000E+00   
0    226        8               7.563E-02 -2.453E-02 -1.062E+00  6.504E-03 -3.007E-02  4.115E-01  0.000E+00  0.000E+00  0.000E+00   
0    226        9               5.938E-02  3.736E-02 -7.490E-01 -4.797E-04 -2.285E-02  3.280E-01  0.000E+00  0.000E+00  0.000E+00   
0    226       10               4.599E-02  5.854E-02 -5.317E-01 -3.722E-03 -1.715E-02  2.547E-01  0.000E+00  0.000E+00  0.000E+00   
0    226                0.0000  1.051E+00 -1.499E+01 -2.608E+01  3.892E-01  0.000E+00  0.000E+00  0.000E+00  0.000E+00  0.000E+00   
0    226                3.5810  9.940E-01 -1.468E+01 -2.498E+01  3.727E-01 -1.203E-01  8.837E-01  0.000E+00  0.000E+00  0.000E+00   
0    226                7.1620  8.344E-01 -1.378E+01 -2.188E+01  3.246E-01 -2.214E-01  1.528E+00  0.000E+00  0.000E+00  0.000E+00   
0    227        0               3.799E-02  7.791E-01 -5.026E-01  1.141E-01  0.000E+00  0.000E+00  0.000E+00  0.000E+00  0.000E+00   
0    227        1               4.995E-02 -1.352E-02 -1.117E+00  2.230E-01  2.901E-02 -7.150E-01  0.000E+00  0.000E+00  0.000E+00   
1     ASYMMETRIC PRESSURE LOADING OF AN AXISYMMETRIC CYLINDRICAL SH         /    95 SUN SOLARIS NASTRAN    / MAY 17, 95 / PAGE   306
      NASTRAN DEMONSTRATION PROBLEM NO. D01-15-1A                                                                                   
0                                                                                                                                   
 
     S T R E S S E S  I N  A X I S - S Y M M E T R I C  T R I A N G U L A R  R I N G  E L E M E N T S  (CTRIAAX)
 
 ELEMENT   HARMONIC    POINT    RADIAL      AXIAL      CIRCUM.     SHEAR      SHEAR      SHEAR      F L U X   D E N S I T I E S
 ID.       NUMBER      ANGLE     (R)         (Z)     (THETA-T)    (ZR)       (RT)       (ZT)        (R)        (Z)        (T)
0    227        2              -1.219E-01 -5.263E+00 -3.783E+00  1.637E-01  9.872E-02 -8.294E-01  0.000E+00  0.000E+00  0.000E+00   
0    227        3              -3.425E-01 -6.312E+00 -8.443E+00  1.314E-01  2.035E-01  1.657E-01  0.000E+00  0.000E+00  0.000E+00   
0    227        4              -2.756E-01 -3.097E+00 -6.404E+00  1.648E-01  2.111E-01  7.116E-01  0.000E+00  0.000E+00  0.000E+00   
0    227        5              -1.869E-01 -1.455E+00 -4.312E+00  1.732E-01  1.852E-01  9.196E-01  0.000E+00  0.000E+00  0.000E+00   
0    227        6              -1.184E-01 -6.120E-01 -2.915E+00  1.608E-01  1.495E-01  8.860E-01  0.000E+00  0.000E+00  0.000E+00   
0    227        7              -7.211E-02 -1.942E-01 -1.995E+00  1.378E-01  1.162E-01  7.545E-01  0.000E+00  0.000E+00  0.000E+00   
0    227        8              -4.270E-02  3.433E-05 -1.380E+00  1.124E-01  8.873E-02  6.065E-01  0.000E+00  0.000E+00  0.000E+00   
0    227        9              -2.447E-02  8.116E-02 -9.636E-01  8.898E-02  6.712E-02  4.726E-01  0.000E+00  0.000E+00  0.000E+00   
0    227       10              -1.335E-02  1.067E-01 -6.766E-01  6.896E-02  5.043E-02  3.613E-01  0.000E+00  0.000E+00  0.000E+00   
0    227                0.0000 -1.110E+00 -1.598E+01 -3.249E+01  1.539E+00  0.000E+00  0.000E+00  0.000E+00  0.000E+00  0.000E+00   
0    227                3.5810 -1.059E+00 -1.563E+01 -3.107E+01  1.457E+00  3.730E-01  1.740E+00  0.000E+00  0.000E+00  0.000E+00   
0    227                7.1620 -9.133E-01 -1.461E+01 -2.704E+01  1.228E+00  6.863E-01  3.108E+00  0.000E+00  0.000E+00  0.000E+00   
1     ASYMMETRIC PRESSURE LOADING OF AN AXISYMMETRIC CYLINDRICAL SH         /    95 SUN SOLARIS NASTRAN    / MAY 17, 95 / PAGE   307
      NASTRAN DEMONSTRATION PROBLEM NO. D01-15-1A                                                                                   

                                                                                                                                    




0*** SYSTEM WARNING MESSAGE 3022
+                                 (SEE PROG. MANUAL SEC. 4.9.7, OR USERS' MANUAL P. 6.5-3)
     DATA BLOCK OES1G    MAY BE REQUIRED AS INPUT AND IS NOT OUTPUT BY A PREVIOUS MODULE IN THE CURRENT DMAP ROUTE.
0*** SYSTEM WARNING MESSAGE 3022
+                                 (SEE PROG. MANUAL SEC. 4.9.7, OR USERS' MANUAL P. 6.5-3)
     DATA BLOCK OES1AM   MAY BE REQUIRED AS INPUT AND IS NOT OUTPUT BY A PREVIOUS MODULE IN THE CURRENT DMAP ROUTE.
0*** SYSTEM WARNING MESSAGE 3022
+                                 (SEE PROG. MANUAL SEC. 4.9.7, OR USERS' MANUAL P. 6.5-3)
     DATA BLOCK OES1AG   MAY BE REQUIRED AS INPUT AND IS NOT OUTPUT BY A PREVIOUS MODULE IN THE CURRENT DMAP ROUTE.
0*** SYSTEM WARNING MESSAGE 3022
+                                 (SEE PROG. MANUAL SEC. 4.9.7, OR USERS' MANUAL P. 6.5-3)
     DATA BLOCK ONRGY1   MAY BE REQUIRED AS INPUT AND IS NOT OUTPUT BY A PREVIOUS MODULE IN THE CURRENT DMAP ROUTE.




                                        * * * END OF JOB * * *
1
 JOB TITLE =  ASYMMETRIC PRESSURE LOADING OF AN AXISYMMETRIC CYLINDRICAL SH      
 DATE:  5/17/95
 END TIME: 15:11: 1
 TOTAL WALL CLOCK TIME      6 SEC.
 
