





                                  ****
                                *      *
                               *        *
                               *  N A S T R A N
                               *        *
                                *      *
                                  ****


                             SUN COMPUTER SYSTEMS    
                                SOLARIS VERSION

                          SYSTEM RELEASE -  1995 ED.

                                DISTRIBUTED BY

         COMPUTER SOFTWARE MANAGEMENT AND INFORMATION CENTER (COSMIC)
                 UNIVERSITY OF GEORGIA, ATHENS, GEORGIA 30602
                 PHONE: (706)542-3265      FAX: (706)542-4807
1                                                                           /    95 SUN SOLARIS NASTRAN    / MAY 17, 95 / PAGE     2
                                                                                                                                    
0                                                                                                                                   
                                                                                                         
                                                                                                         
                         INSTALLATION CENTER USER INFORMATION GIVEN IN THIS SECTION                      
                                                                                                         
                                     *********************************************                       
                                     *                                           *                       
                                     *  PLEASE READ THE COMMENT IN DEMO PROBLEM  *                       
                                     *  D01002A ABOUT SYSTEM TIMING CONSTANTS    *                       
                                     *                                           *                       
                                     *********************************************                       
                                                                                                         
                         ===X=    TOP OF PAGE REQUEST IF 'X' IS REPLACED BY '='                          
                                                                                                         
1                                                                           /    95 SUN SOLARIS NASTRAN    / MAY 17, 95 / PAGE     3
                                                                                                                                    
0                                                                                                                                   
0*** USER INFORMATION MESSAGE 225, GINO TIME CONSTANTS ARE BEING COMPUTED
     (SEE NASINFO FILE FOR ELIMINATION OF THESE COMPUTATIONS)
1                                                                           /    95 SUN SOLARIS NASTRAN    / MAY 17, 95 / PAGE     4
                                                                                                                                    
0        N A S T R A N    E X E C U T I V E    C O N T R O L    D E C K    E C H O                                                  
0                                                                                                                                   
                                                                                                                                    
                                                                                                                                    
     $ NASTRAN FILES=INP1                                                            
     ID    D02036A,NASTRAN                                                           
     APP   DISP,SUBS                                                                 
     SOL   9,0                                                                       
     TIME  40                                                                        
     DIAG  14,23                                                                     
     CEND                                                                            


0*** USER INFORMATION MESSAGE, TURN DIAG 48 ON FOR NASTRAN RELEASE NEWS, DIAG DEFINITION, NEW DMAP
         MODULES AND NEW BULKDATA CARDS INFORMATION
1                                                                           /    95 SUN SOLARIS NASTRAN    / MAY 17, 95 / PAGE     5
                                                                                                                                    
0                            N A S T R A N  S U B S T R U C T U R E  D E C K  E C H O                                               
0                                                                                                                                   
                                                                                                                                    
                                                                                                                                    
     SUBSTRUCTURE PHASE3                                                             
     PASSWORD = MDLSYN                                                               
       SOF(1) = FT19,500 $ DEC VAX                                                   
     BRECOVER BBASIC                                                                 
     SOFPRINT TOC                                                                    
       ENDSUBS
1                                                                           /    95 SUN SOLARIS NASTRAN    / MAY 17, 95 / PAGE     6
                                                                                                                                    
0                            N A S T R A N  S U B S T R U C T U R E  D E C K  E C H O                                               
0                                                                                                                                   
                                                                                                                                    
                                                                                                                                    
     ALTER DECK ECHO
        1    ALTER         88
        2    PARAM     //*ADD*/DRY/1  /0 $                                           
        3    LABEL     LBSBEG $                                                      
        4    ALTER         93,137
        5    PARAM     //*NOP*/ALWAYS=-1 $                                           
        6    SSG1      SLT,BGPDT,CSTM,SIL,EST,MPT,GPTT,EDT,MGG,CASECC,DIT,/PG,,,,/   
        7              LUSET/NSKIP $                                                 
        8    SSG2      USET,GM,  ,KFS,GO,,PG/QR,PO,PS,PL $                           
        9    RCOVR3    ,PG,PS,  ,  /UDVT,QAS,PPT,PST,   ,   ,TOL /9   /*BBASIC  */   
       10              NOUE $                                                        
       11    ALTER        139
       12    UMERGE    USET,QAS,/QGS/*G*/*A*/*O* $                                   
       13    ADD       QP ,QGS/QGT/  (1.0,0.0)/(1.0,0.0) $                           
       14    EQUIV     QGT,QP /ALWAYS $                                              
       15    EQUIV     CASECC,CASEXX/ALWAYS $                                        
       16    ALTER        152,154
       17    SOFUT     //DRY/*TOC     */*SOFP*/0  /*        */*    */*    */*    */  
       18              *    */*    */*    * $                                        
       19    LABEL     LBSEND $                                                      
1     TRUSS DYNAMIC ANALYSIS USING AUTOMATED MODAL SYNTHESIS                /    95 SUN SOLARIS NASTRAN    / MAY 17, 95 / PAGE     7
      NASTRAN DEMONSTRATION PROBLEM NO. D02-03-6A                                                                                   
0     RECOVER BBASIC , RUN 6, PHASE 3, RF 9                                                                                         
0                                        C A S E    C O N T R O L   D E C K   E C H O                                               
                 CARD                                                                                                               
                 COUNT                                                                                                              
                  1      TITLE    = TRUSS DYNAMIC ANALYSIS USING AUTOMATED MODAL SYNTHESIS               
                  2      SUBTITLE = NASTRAN DEMONSTRATION PROBLEM NO. D02-03-6A                          
                  3      LABEL    = RECOVER BBASIC , RUN 6, PHASE 3, RF 9                                
                  4      MAXLINES = 100000                                                               
                  5      IC    = 522                                                                     
                  6      TSTEP = 40                                                                      
                  7      LOAD  = 980                                                                     
                  8      DISP  = ALL                                                                     
                  9      ELFO  = ALL                                                                     
                 10      STRE  = ALL                                                                     
                 11      BEGIN BULK                                                                      


                        (NO. OF UNSORTED BULK DATA CARDS READ =    52, INCLUDING   0 COMMENT CARDS)
0*** USER INFORMATION MESSAGE 207, BULK DATA DECK IS NOT SORTED. NASTRAN WILL RE-ORDER THE INPUT DECK.
1     TRUSS DYNAMIC ANALYSIS USING AUTOMATED MODAL SYNTHESIS                /    95 SUN SOLARIS NASTRAN    / MAY 17, 95 / PAGE     8
      NASTRAN DEMONSTRATION PROBLEM NO. D02-03-6A                                                                                   
0     RECOVER BBASIC , RUN 6, PHASE 3, RF 9                                                                                         
0                                                 S O R T E D   B U L K    D A T A    E C H O                                       
                     CARD                                                                                                           
                     COUNT        ---1--- +++2+++ ---3--- +++4+++ ---5--- +++6+++ ---7--- +++8+++ ---9--- +++10+++                  
                    1-        CROD    1       1       1       2                                               
                    2-        CROD    2       1       2       3                                               
                    3-        CROD    11      1       11      12                                              
                    4-        CROD    12      1       12      13                                              
                    5-        CROD    21      1       21      22                                              
                    6-        CROD    22      1       22      23                                              
                    7-        CROD    31      1       31      32                                              
                    8-        CROD    32      1       32      33                                              
                    9-        CROD    41      1       41      42                                              
                   10-        CROD    42      1       42      43                                              
                   11-        CROD    111     1       1       11                                              
                   12-        CROD    112     1       2       12                                              
                   13-        CROD    113     1       3       13                                              
                   14-        CROD    121     1       11      21                                              
                   15-        CROD    122     1       12      22                                              
                   16-        CROD    123     1       13      23                                              
                   17-        CROD    131     1       21      31                                              
                   18-        CROD    132     1       22      32                                              
                   19-        CROD    133     1       23      33                                              
                   20-        CROD    141     1       31      41                                              
                   21-        CROD    142     1       32      42                                              
                   22-        CROD    143     1       33      43                                              
                   23-        CROD    211     1       2       11                                              
                   24-        CROD    212     1       2       13                                              
                   25-        CROD    221     1       12      21                                              
                   26-        CROD    222     1       12      23                                              
                   27-        CROD    231     1       22      31                                              
                   28-        CROD    232     1       22      33                                              
                   29-        CROD    241     1       32      41                                              
                   30-        CROD    242     1       32      43                                              
                   31-        GRAV    980             980.0   .0      -1.0    .0                              
                   32-        GRDSET                                                  3456                    
                   33-        GRID    1               30.0    0.0     0.0                                     
                   34-        GRID    2               0.0     0.0     0.0                                     
                   35-        GRID    3               -30.0   0.0     0.0                                     
                   36-        GRID    11              30.0    40.0    0.0                                     
                   37-        GRID    12              0.0     40.0    0.0                                     
                   38-        GRID    13              -30.0   40.0    0.0                                     
                   39-        GRID    21              30.0    80.0    0.0                                     
                   40-        GRID    22              0.0     80.0    0.0                                     
                   41-        GRID    23              -30.0   80.0    0.0                                     
                   42-        GRID    31              30.0    120.0   0.0                                     
                   43-        GRID    32              0.0     120.0   0.0                                     
                   44-        GRID    33              -30.0   120.0   0.0                                     
                   45-        GRID    41              30.0    160.0   0.0                                     
                   46-        GRID    42              0.0     160.0   0.0                                     
                   47-        GRID    43              -30.0   160.0   0.0                                     
1     TRUSS DYNAMIC ANALYSIS USING AUTOMATED MODAL SYNTHESIS                /    95 SUN SOLARIS NASTRAN    / MAY 17, 95 / PAGE     9
      NASTRAN DEMONSTRATION PROBLEM NO. D02-03-6A                                                                                   

      RECOVER BBASIC , RUN 6, PHASE 3, RF 9                                                                                         

                                                  S O R T E D   B U L K    D A T A    E C H O                                       
                     CARD                                                                                                           
                     COUNT        ---1--- +++2+++ ---3--- +++4+++ ---5--- +++6+++ ---7--- +++8+++ ---9--- +++10+++                  
                   48-        MAT1    1       10.0+6          .3      2.5-3                                   
                   49-        PARAM   GRDPNT  0                                                               
                   50-        PROD    1       1       .3                                                      
                   51-        TIC     522     2       2       .1                                              
                   52-        TSTEP   40      40      2.0-2   1                                               
                              ENDDATA
1     TRUSS DYNAMIC ANALYSIS USING AUTOMATED MODAL SYNTHESIS                /    95 SUN SOLARIS NASTRAN    / MAY 17, 95 / PAGE    10
      NASTRAN DEMONSTRATION PROBLEM NO. D02-03-6A                                                                                   
0     RECOVER BBASIC , RUN 6, PHASE 3, RF 9                                                                                         
0         COSMIC / NASTRAN DMAP COMPILER - SOURCE LISTING                                                                           
                                                                                                                                    
                                                                                                                                    
0  OPTIONS IN EFFECT GO      ERR=2   LIST    NODECK  NOREF   NOOSCAR 
   -----------------


       1  BEGIN    DISP 09 - DIRECT TRANSIENT RESPONSE ANALYSIS - APR. 1995 $     

       2  PRECHK   ALL $                                                          

       3  FILE     UDVT=APPEND/TOL=APPEND/RLODDISP=APPEND $                       

       4  PARAM    //*MPY*/CARDNO/0/0 $                                           

       5  GP1      GEOM1,GEOM2,/GPL,EQEXIN,GPDT,CSTM,BGPDT,SIL/S,N,LUSET/         
                   S,N,NOGPDT/ALWAYS=-1 $                                         

       6  ANISOP   GEOM1,EPT,BGPDT,EQEXIN,MPT/MPTA/S,N,ISOP $                     

       7  EQUIV    MPTA,MPT/ISOP $                                                

       8  PLTTRAN  BGPDT,SIL/BGPDP,SIP/LUSET/S,N,LUSEP $                          

       9  PURGE    USET,GM,GO,KAA,BAA,MAA,K4AA,PST,KFS,QP,EST,ECT,PLTSETX,PLTPAR, 
                   GPSETS,ELSETS/NOGPDT $                                         

      10  COND     LBL5,NOGPDT $                                                  

      11  GP2      GEOM2,EQEXIN/ECT $                                             

      12  PARAML   PCDB//*PRES*////JUMPPLOT $                                     

      13  PURGE    PLTSETX,PLTPAR,GPSETS,ELSETS/JUMPPLOT $                        

      14  COND     P1,JUMPPLOT $                                                  

      15  PLTSET   PCDB,EQEXIN,ECT,EPT/PLTSETX,PLTPAR,GPSETS,ELSETS/S,N,NSIL/     
                   S,N,JUMPPLOT $                                                 

      16  PRTMSG   PLTSETX// $                                                    

      17  PARAM    //*MPY*/PLTFLG/1/1 $                                           

      18  PARAM    //*MPY*/PFILE/0/0 $                                            

      19  COND     P1,JUMPPLOT $                                                  

      20  PLOT     PLTPAR,GPSETS,ELSETS,CASECC,BGPDT,EQEXIN,SIL,,ECT,,,,/PLOTX1/  
1     TRUSS DYNAMIC ANALYSIS USING AUTOMATED MODAL SYNTHESIS                /    95 SUN SOLARIS NASTRAN    / MAY 17, 95 / PAGE    11
      NASTRAN DEMONSTRATION PROBLEM NO. D02-03-6A                                                                                   
0     RECOVER BBASIC , RUN 6, PHASE 3, RF 9                                                                                         
0         COSMIC / NASTRAN DMAP COMPILER - SOURCE LISTING                                                                           
                                                                                                                                    
                                                                                                                                    
                   NSIL/LUSET/S,N,JUMPPLOT/S,N,PLTFLG/S,N,PFILE $                 

      21  PRTMSG   PLOTX1// $                                                     

      22  LABEL    P1 $                                                           

      23  GP3      GEOM3,EQEXIN,GEOM2/SLT,GPTT/NOGRAV $                           

      24  TA1      ECT,EPT,BGPDT,SIL,GPTT,CSTM,MPT,EQEXIN/EST,GEI,GPECT,,,MPTX,   
                   PCOMPS,EPTX/LUSET/S,N,NOSIMP=-1/1/S,N,NOGENL=-1/GENEL/         
                   S,N,COMPS                                                      

      25  EQUIV    MPTX,MPT/COMPS/EPTX,EPT/COMPS $                                

      26  PURGE    K4GG,MGG,BGG,                                                  
                   K4NN,K4FF,K4AA,MNN,MFF,MAA,BNN,BFF,BAA,KGGX/NOSIMP $           

      27  COND     LBL1,NOSIMP $                                                  

      28  PARAM    //*ADD*/NOKGGX/1/0 $                                           

      29  PARAM    //*ADD*/NOMGG/1/0 $                                            

      30  PARAM    //*ADD*/NOBGG=-1/1/0 $                                         

      31  PARAM    //*ADD*/NOK4GG/1/0 $                                           

      32  EMG      EST,CSTM,MPT,DIT,GEOM2,/KELM,KDICT,MELM,MDICT,BELM,BDICT,/     
                   S,N,NOKGGX/S,N,NOMGG/S,N,NOBGG/S,N,NOK4GG//C,Y,COUPMASS/       
                   C,Y,CPBAR/C,Y,CPROD/C,Y,CPQUAD1/C,Y,CPQUAD2/C,Y,CPTRIA1/       
                   C,Y,CPTRIA2/C,Y,CPTUBE/C,Y,CPQDPLT/C,Y,CPTRPLT/C,Y,CPTRBSC/    
                   C,Y,VOLUME/C,Y,SURFACE $                                       

      33  PURGE    KGGX/NOKGGX/MGG/NOMGG $                                        

      34  COND     LBLKGGX,NOKGGX $                                               

      35  EMA      GPECT,KDICT,KELM/KGGX $                                        

      36  LABEL    LBLKGGX $                                                      

      37  COND     LBLMGG,NOMGG $                                                 

      38  EMA      GPECT,MDICT,MELM/MGG/-1/C,Y,WTMASS=1.0 $                       

      39  PURGE    MDICT,MELM/ALWAYS $                                            

      40  LABEL    LBLMGG $                                                       
1     TRUSS DYNAMIC ANALYSIS USING AUTOMATED MODAL SYNTHESIS                /    95 SUN SOLARIS NASTRAN    / MAY 17, 95 / PAGE    12
      NASTRAN DEMONSTRATION PROBLEM NO. D02-03-6A                                                                                   

      RECOVER BBASIC , RUN 6, PHASE 3, RF 9                                                                                         

          COSMIC / NASTRAN DMAP COMPILER - SOURCE LISTING                                                                           
                                                                                                                                    
                                                                                                                                    

      41  COND     LBLBGG,NOBGG $                                                 

      42  EMA      GPECT,BDICT,BELM/BGG $                                         

      43  PURGE    BDICT,BELM/ALWAYS $                                            

      44  LABEL    LBLBGG $                                                       

      45  COND     LBLK4GG,NOK4GG $                                               

      46  EMA      GPECT,KDICT,KELM/K4GG/NOK4GG $                                 

      47  LABEL    LBLK4GG $                                                      

      48  PURGE    KDICT,KELM/ALWAYS $                                            

      49  PURGE    MNN,MFF,MAA/NOMGG $                                            

      50  PURGE    BNN,BFF,BAA/NOBGG $                                            

      51  COND     LBL1,GRDPNT $                                                  

      52  COND     ERROR3,NOMGG $                                                 

      53  GPWG     BGPDP,CSTM,EQEXIN,MGG/OGPWG/V,Y,GRDPNT=-1/C,Y,WTMASS $         

      54  OFP      OGPWG,,,,,//S,N,CARDNO $                                       

      55  LABEL    LBL1  $                                                        

      56  EQUIV    KGGX,KGG/NOGENL $                                              

      57  COND     LBL11,NOGENL $                                                 

      58  SMA3     GEI,KGGX/KGG/LUSET/NOGENL/NOSIMP $                             

      59  LABEL    LBL11 $                                                        

      60  GPSTGEN  KGG,SIL/GPST $                                                 

      61  PARAM    //*MPY*/NSKIP/0/0 $                                            

      62  GP4      CASECC,GEOM4,EQEXIN,GPDT,BGPDT,CSTM,GPST/RG,,USET,             
                   ASET,OGPST/LUSET/S,N,MPCF1/S,N,MPCF2/S,N,SINGLE/S,N,OMIT/      
                   S,N,REACT/S,N,NSKIP/S,N,REPEAT/S,N,NOSET/S,N,NOL/S,N,NOA/      
1     TRUSS DYNAMIC ANALYSIS USING AUTOMATED MODAL SYNTHESIS                /    95 SUN SOLARIS NASTRAN    / MAY 17, 95 / PAGE    13
      NASTRAN DEMONSTRATION PROBLEM NO. D02-03-6A                                                                                   
0     RECOVER BBASIC , RUN 6, PHASE 3, RF 9                                                                                         
0         COSMIC / NASTRAN DMAP COMPILER - SOURCE LISTING                                                                           
                                                                                                                                    
                                                                                                                                    
                   C,Y,ASETOUT/C,Y,AUTOSPC $                                      

      63  OFP      OGPST,,,,,//S,N,CARDNO $                                       

      64  PURGE    GM,GMD/MPCF1/GO,GOD/OMIT/KFS,PST,QP/SINGLE $                   

      65  EQUIV    KGG,KNN/MPCF1/MGG,MNN/MPCF1/ BGG,BNN/MPCF1/K4GG,K4NN/MPCF1 $   

      66  COND     LBL2,MPCF1 $                                                   

      67  MCE1     USET,RG/GM $                                                   

      68  MCE2     USET,GM,KGG,MGG,BGG,K4GG/KNN,MNN,BNN,K4NN  $                   

      69  LABEL    LBL2 $                                                         

      70  EQUIV    KNN,KFF/SINGLE/MNN,MFF/SINGLE/BNN,BFF/SINGLE/K4NN,K4FF/SINGLE $

      71  COND     LBL3,SINGLE $                                                  

      72  SCE1     USET,KNN,MNN,BNN,K4NN/KFF,KFS,   ,MFF,BFF,K4FF $               

      73  LABEL    LBL3 $                                                         

      74  EQUIV    KFF,KAA/OMIT $                                                 

      75  EQUIV    MFF,MAA/OMIT $                                                 

      76  EQUIV    BFF,BAA/OMIT $                                                 

      77  EQUIV    K4FF,K4AA/OMIT $                                               

      78  COND     LBL5,OMIT $                                                    

      79  SMP1     USET,KFF,,,/GO,KAA,KOO,LOO,,,,, $                              

      80  COND     LBLM,NOMGG $                                                   

      81  SMP2     USET,GO,MFF/MAA $                                              

      82  LABEL    LBLM $                                                         

      83  COND     LBLB,NOBGG $                                                   

      84  SMP2     USET,GO,BFF/BAA $                                              

      85  LABEL    LBLB $                                                         
1     TRUSS DYNAMIC ANALYSIS USING AUTOMATED MODAL SYNTHESIS                /    95 SUN SOLARIS NASTRAN    / MAY 17, 95 / PAGE    14
      NASTRAN DEMONSTRATION PROBLEM NO. D02-03-6A                                                                                   

      RECOVER BBASIC , RUN 6, PHASE 3, RF 9                                                                                         

          COSMIC / NASTRAN DMAP COMPILER - SOURCE LISTING                                                                           
                                                                                                                                    
                                                                                                                                    

      86  COND     LBL5,NOK4GG $                                                  

      87  SMP2     USET,GO,K4FF/K4AA $                                            

      88  LABEL    LBL5 $                                                         

      88  PARAM     //*ADD*/DRY/1  /0 $                                           

      88  LABEL     LBSBEG $                                                      

      89  DPD      DYNAMICS,GPL,SIL,USET/GPLD,SILD,USETD,TFPOOL,DLT,,,NLFT,TRL,,  
                   EQDYN/LUSET/S,N,LUSETD/NOTFL/S,N,NODLT/NOPSDL/                 
                   NOFRL/S,N,NONLFT/S,N,NOTRL/NOEED//S,N,NOUE $                   

      90  COND     ERROR1,NOTRL $                                                 

      91  PURGE    PNLD/NONLFT$                                                   

      92  EQUIV    GO,GOD/NOUE/GM,GMD/NOUE  $                                     

     137  PARAM     //*NOP*/ALWAYS=-1 $                                           
0*** USER WARNING MESSAGE   42,
                              POSSIBLE ERROR IN DMAP INSTRUCTION PARAM      INSTRUCTION NO. 137
     PARAMETER NAMED ALWAYS   ALREADY HAD VALUE ASSIGNED PREVIOUSLY

     137  SSG1      SLT,BGPDT,CSTM,SIL,EST,MPT,GPTT,EDT,MGG,CASECC,DIT,/PG,,,,/   
                    LUSET/NSKIP $                                                 

     137  SSG2      USET,GM,  ,KFS,GO,,PG/QR,PO,PS,PL $                           

     137  RCOVR3    ,PG,PS,  ,  /UDVT,QAS,PPT,PST,   ,   ,TOL /9   /*BBASIC  */   
                    NOUE $                                                        

     138  SDR1     USETD,,UDVT,,,GOD,GMD,PST,KFS,,/UPV,,QP/1/*DYNAMICS* $         

     139  LABEL    LBL17 $                                                        

     139  UMERGE    USET,QAS,/QGS/*G*/*A*/*O* $                                   

     139  ADD       QP ,QGS/QGT/  (1.0,0.0)/(1.0,0.0) $                           

     139  EQUIV     QGT,QP /ALWAYS $                                              

     139  EQUIV     CASECC,CASEXX/ALWAYS $                                        

     140  SDR2     CASEXX,CSTM,MPT,DIT,EQDYN,SILD,,,BGPDP,TOL,QP,UPV,EST,XYCDB,   
1     TRUSS DYNAMIC ANALYSIS USING AUTOMATED MODAL SYNTHESIS                /    95 SUN SOLARIS NASTRAN    / MAY 17, 95 / PAGE    15
      NASTRAN DEMONSTRATION PROBLEM NO. D02-03-6A                                                                                   
0     RECOVER BBASIC , RUN 6, PHASE 3, RF 9                                                                                         
0         COSMIC / NASTRAN DMAP COMPILER - SOURCE LISTING                                                                           
                                                                                                                                    
                                                                                                                                    
                   PPT,/OPP1,OQP1,OUPV1,OES1,OEF1,PUGV,,/*TRANRESP* $             

     141  SDR3     OPP1,OQP1,OUPV1,OES1,OEF1,/                                    
                   OPP2,OQP2,OUPV2,OES2,OEF2, $                                   

     142  OFP      OPP2,OQP2,OUPV2,OEF2,OES2,//S,N,CARDNO $                       

     143  SCAN     CASECC,OES2,OEF2,,/OESF2,/*RF* $                               

     144  OFP      OESF2,,,,,//S,N,CARDNO $                                       

     145  COND     P2,JUMPPLOT $                                                  

     146  PLOT     PLTPAR,GPSETS,ELSETS,CASEXX,BGPDT,EQEXIN,SIP,,PUGV,GPECT,OES1, 
                   ,/PLOTX2/NSIL/LUSEP/JUMPPLOT/PLTFLG/S,N,PFILE $                

     147  PRTMSG   PLOTX2// $                                                     

     148  LABEL    P2 $                                                           

     149  XYTRAN   XYCDB,OPP2,OQP2,OUPV2,OES2,OEF2/XYPLTT/*TRAN*/*PSET*/          
                   S,N,PFILE/S,N,CARDNO $                                         

     150  XYPLOT   XYPLTT// $                                                     

     151  LABEL    LBL18 $                                                        

     154  SOFUT     //DRY/*TOC     */*SOFP*/0  /*        */*    */*    */*    */  
                    *    */*    */*    * $                                        

     154  LABEL     LBSEND $                                                      

     155  JUMP     FINIS $                                                        

     156  LABEL    ERROR1 $                                                       

     157  PRTPARM  //-1/*DIRTRD* $                                                

     158  LABEL    ERROR3 $                                                       

     159  PRTPARM  //-3/*DIRTRD* $                                                

     160  LABEL    FINIS  $                                                       

     161  PURGE    DUMMY/ALWAYS $                                                 

     162  END      $                                                              
1     TRUSS DYNAMIC ANALYSIS USING AUTOMATED MODAL SYNTHESIS                /    95 SUN SOLARIS NASTRAN    / MAY 17, 95 / PAGE    16
      NASTRAN DEMONSTRATION PROBLEM NO. D02-03-6A                                                                                   
0     RECOVER BBASIC , RUN 6, PHASE 3, RF 9                                                                                         
0         COSMIC / NASTRAN DMAP COMPILER - SOURCE LISTING                                                                           
                                                                                                                                    
                                                                                                                                    
0*** USER WARNING MESSAGE   27,
     LABEL NAMED LBSEND   NOT REFERENCED
0*** USER WARNING MESSAGE   27,
     LABEL NAMED LBL18    NOT REFERENCED
0*** USER WARNING MESSAGE   27,
     LABEL NAMED LBL17    NOT REFERENCED
0*** USER WARNING MESSAGE   27,
     LABEL NAMED LBSBEG   NOT REFERENCED
1     TRUSS DYNAMIC ANALYSIS USING AUTOMATED MODAL SYNTHESIS                /    95 SUN SOLARIS NASTRAN    / MAY 17, 95 / PAGE    17
      NASTRAN DEMONSTRATION PROBLEM NO. D02-03-6A                                                                                   
0     RECOVER BBASIC , RUN 6, PHASE 3, RF 9                                                                                         
0*** USER INFORMATION MESSAGES FROM RESEQUENCING PROCESSOR - BANDIT     (CRI= 1,  MTH= 3,  MPC= 0,  DEP=-1,  PCH=-1)

                               BEFORE RESEQUENCING - - -
                                        BANDWIDTH            5
                                        PROFILE             57
                                        MAX WAVEFRONT        5
                                        AVG WAVEFRONT    3.800
                                        RMS WAVEFRONT    3.958
                                        RMS BANDWIDTH    3.975

                               AFTER RESEQUENCING BY GIBBS-POOLE-STOCKMEYER (GPS) ALGORITHM - - -
                                        BANDWIDTH            5
                                        PROFILE             56
                                        MAX WAVEFRONT        5
                                        AVG WAVEFRONT    3.733
                                        RMS WAVEFRONT    3.882
                                        RMS BANDWIDTH    3.916


                                                     *** BANDIT SUMMARY ***

                                                                        BEFORE     AFTER
                                        BANDWIDTH (B)                        5         5
                                        PROFILE (P)                         57        56
                                        MAXIMUM WAVEFRONT (C-MAX)            5         5
                                        AVERAGE WAVEFRONT (C-AVG)        3.800     3.733
                                        RMS WAVEFRONT (C-RMS)            3.958     3.882
                                        RMS BANDWITCH (B-RMS)            3.975     3.916
                                        NUMBER OF GRID POINTS (N)                     15
                                        NUMBER OF ELEMENTS (NON-RIGID)                30
                                        NUMBER OF RIGID ELEMENTS PROCESSED*            0
                                        NUMBER OF MPC  EQUATIONS PROCESSED*            0
                                        NUMBER OF COMPONENTS                           1
                                        MAXIMUM NODAL DEGREE                           6
                                        MINIMUM NODAL DEGREE                           2
                                        NUMBER OF UNIQUE EDGES                        30
                                        MATRIX DENSITY, PERCENT                   33.333
                                        NUMBER OF POINTS OF ZERO DEGREE                0
                                        BANDIT OPEN CORE                         1998969
                                        CRITERION*                         RMS WAVEFRONT
                                        METHOD USED*                                 GPS
                                        NO. OF SEQGP CARDS GENERATED                   4

                               (* THESE DEFAULT OPTIONS CAN BE OVERRIDDEN BY THE NASTRAN CARD)
1     TRUSS DYNAMIC ANALYSIS USING AUTOMATED MODAL SYNTHESIS                /    95 SUN SOLARIS NASTRAN    / MAY 17, 95 / PAGE    18
      NASTRAN DEMONSTRATION PROBLEM NO. D02-03-6A                                                                                   
0     RECOVER BBASIC , RUN 6, PHASE 3, RF 9                                                                                         


                                   S Y S T E M  G E N E R A T E D  S E Q G P  C A R D S

                         SEQGP          1       1       2       4       3       2      11       3
                         SEQGP         12       7      13       5      21       6      22      10
                         SEQGP         23       8      31       9      32      13      33      11
                         SEQGP         41      12      42      15      43      14
0         **NO ERRORS FOUND - EXECUTE NASTRAN PROGRAM**
0*** USER INFORMATION MESSAGE 238, TURN DIAG 38 ON FOR ADDITIONAL ELEMENT PROCESSING INFORMATION

0*** USER INFORMATION MESSAGE 3113,
     EMG MODULE PROCESSING DOUBLE PRECISION ROD      ELEMENTS (ELEMENT TYPE   1) STARTING WITH ID        1
0*** USER WARNING MESSAGE 3041
0EXTERNAL GRID POINT        0 DOES NOT EXIST OR IS NOT A GEOMETRIC GRID POINT.
     THE BASIC ORIGIN WILL BE USED.
1     TRUSS DYNAMIC ANALYSIS USING AUTOMATED MODAL SYNTHESIS                /    95 SUN SOLARIS NASTRAN    / MAY 17, 95 / PAGE    19
      NASTRAN DEMONSTRATION PROBLEM NO. D02-03-6A                                                                                   
0     RECOVER BBASIC , RUN 6, PHASE 3, RF 9                                                                                         
 
 
                           O U T P U T   F R O M   G R I D   P O I N T   W E I G H T   G E N E R A T O R
0                                                     REFERENCE POINT =        0
 
 
                                     MO - RIGID BODY MASS MATRIX IN BASIC COORDINATE SYSTEM
                ***                                                                                             ***
                *  8.85000008D-01  0.00000000D+00  0.00000000D+00  0.00000000D+00  0.00000000D+00 -7.08000006D+01 *
                *  0.00000000D+00  8.85000008D-01  0.00000000D+00  0.00000000D+00  0.00000000D+00  0.00000000D+00 *
                *  0.00000000D+00  0.00000000D+00  8.85000008D-01  7.08000006D+01  0.00000000D+00  0.00000000D+00 *
                *  0.00000000D+00  0.00000000D+00  7.08000006D+01  7.96800007D+03  0.00000000D+00  0.00000000D+00 *
                *  0.00000000D+00  0.00000000D+00  0.00000000D+00  0.00000000D+00  4.52250004D+02  0.00000000D+00 *
                * -7.08000006D+01  0.00000000D+00  0.00000000D+00  0.00000000D+00  0.00000000D+00  8.42025007D+03 *
                ***                                                                                             ***
                                        S - TRANSFORMATION MATRIX FOR SCALAR MASS PARTITION
                                        ***                                             ***
                                        *  1.00000000D+00  0.00000000D+00  0.00000000D+00 *
                                        *  0.00000000D+00  1.00000000D+00  0.00000000D+00 *
                                        *  0.00000000D+00  0.00000000D+00  1.00000000D+00 *
                                        ***                                             ***
                         DIRECTION
                    MASS AXIS SYSTEM (S)       MASS                 X-C.G.           Y-C.G.           Z-C.G.
                            X            8.850000077D-01      0.000000000D+00  8.000000000D+01  0.000000000D+00
                            Y            8.850000077D-01      0.000000000D+00  0.000000000D+00  0.000000000D+00
                            Z            8.850000077D-01      0.000000000D+00  8.000000000D+01  0.000000000D+00

                                                 I(S) - INERTIAS RELATIVE TO C.G. 
                                      ***                                                 ***
                                      *  2.304000020D+03  0.000000000D+00  0.000000000D+00  *
                                      *  0.000000000D+00  4.522500039D+02  0.000000000D+00  *
                                      *  0.000000000D+00  0.000000000D+00  2.756250024D+03  *
                                      ***                                                 ***
                                                      I(Q) - PRINCIPAL INERTIAS
                                      ***                                                 ***
                                      *  2.304000020D+03                                    *
                                      *                   4.522500039D+02                   *
                                      *                                    2.756250024D+03  *
                                      ***                                                 ***
                                            Q - TRANSFORMATION MATRIX - I(Q) = QT*I(S)*Q
                                      ***                                                 ***
                                      *  1.000000000D+00  0.000000000D+00  0.000000000D+00  *
                                      *  0.000000000D+00  1.000000000D+00  0.000000000D+00  *
                                      *  0.000000000D+00  0.000000000D+00  1.000000000D+00  *
                                      ***                                                 ***
0*** SYSTEM INFORMATION MESSAGE 6201,  1 FILES HAVE BEEN ALLOCATED TO THE SOF WHERE --
     SIZE OF FILE  1 =        488 BLOCKS
     AND WHERE A BLOCK CONTAINS 1024 WORDS
0*** USER INFORMATION MESSAGE 6321, SUBSTRUCTURE PHASE 3 RECOVER FOR FINAL SOLUTION STRUCTURE RTRUSS  
                                    AND BASIC SUBSTRUCTURE BBASIC  
1     TRUSS DYNAMIC ANALYSIS USING AUTOMATED MODAL SYNTHESIS                /    95 SUN SOLARIS NASTRAN    / MAY 17, 95 / PAGE    20
      NASTRAN DEMONSTRATION PROBLEM NO. D02-03-6A                                                                                   
0     RECOVER BBASIC , RUN 6, PHASE 3, RF 9                                                                                         
      POINT-ID =       1
                                             D I S P L A C E M E N T   V E C T O R
 
       TIME       TYPE          T1             T2             T3             R1             R2             R3
   0.0              G     -9.972804E-02   1.726345E-02   0.0            0.0            0.0            0.0                           
   2.000000E-02     G     -8.795284E-02   1.602409E-02   0.0            0.0            0.0            0.0                           
   4.000000E-02     G     -6.643399E-02   1.299208E-02   0.0            0.0            0.0            0.0                           
   6.000000E-02     G     -3.646334E-02   7.373300E-03   0.0            0.0            0.0            0.0                           
   8.000000E-02     G     -4.473437E-03   5.936068E-04   0.0            0.0            0.0            0.0                           
   9.999999E-02     G      3.187666E-02  -6.535134E-03   0.0            0.0            0.0            0.0                           
   1.200000E-01     G      6.724679E-02  -1.263359E-02   0.0            0.0            0.0            0.0                           
   1.400000E-01     G      8.732010E-02  -1.617281E-02   0.0            0.0            0.0            0.0                           
   1.600000E-01     G      8.532047E-02  -1.639792E-02   0.0            0.0            0.0            0.0                           
   1.800000E-01     G      6.830145E-02  -1.353013E-02   0.0            0.0            0.0            0.0                           
   2.000000E-01     G      4.399038E-02  -8.339021E-03   0.0            0.0            0.0            0.0                           
   2.200000E-01     G      1.101861E-02  -1.591423E-03   0.0            0.0            0.0            0.0                           
   2.400000E-01     G     -3.020194E-02   5.780797E-03   0.0            0.0            0.0            0.0                           
   2.600000E-01     G     -6.623100E-02   1.212600E-02   0.0            0.0            0.0            0.0                           
   2.800000E-01     G     -8.325891E-02   1.578978E-02   0.0            0.0            0.0            0.0                           
   3.000000E-01     G     -8.312082E-02   1.634764E-02   0.0            0.0            0.0            0.0                           
   3.200000E-01     G     -7.334013E-02   1.415126E-02   0.0            0.0            0.0            0.0                           
   3.400000E-01     G     -5.140954E-02   9.338117E-03   0.0            0.0            0.0            0.0                           
   3.600000E-01     G     -1.378143E-02   2.398395E-03   0.0            0.0            0.0            0.0                           
   3.800000E-01     G      2.919014E-02  -7.703990E-03   0.0            0.0            0.0            0.0                           
   4.000000E-01     G      1.387250E-02  -5.085935E-04   0.0            0.0            0.0            0.0                           
   4.200000E-01     G     -5.077145E-02   7.639633E-03   0.0            0.0            0.0            0.0                           
   4.400001E-01     G     -1.718806E-01   3.065482E-02   0.0            0.0            0.0            0.0                           
   4.600001E-01     G     -3.316626E-01   6.272717E-02   0.0            0.0            0.0            0.0                           
   4.800001E-01     G     -5.227460E-01   9.949066E-02   0.0            0.0            0.0            0.0                           
   5.000001E-01     G     -7.030305E-01   1.323348E-01   0.0            0.0            0.0            0.0                           
   5.200000E-01     G     -8.221683E-01   1.545146E-01   0.0            0.0            0.0            0.0                           
   5.400000E-01     G     -8.581591E-01   1.628486E-01   0.0            0.0            0.0            0.0                           
   5.600000E-01     G     -8.139981E-01   1.551891E-01   0.0            0.0            0.0            0.0                           
   5.800000E-01     G     -7.056035E-01   1.331416E-01   0.0            0.0            0.0            0.0                           
   6.000000E-01     G     -5.459657E-01   1.017326E-01   0.0            0.0            0.0            0.0                           
   6.199999E-01     G     -3.496642E-01   6.553696E-02   0.0            0.0            0.0            0.0                           
   6.399999E-01     G     -1.638073E-01   3.120855E-02   0.0            0.0            0.0            0.0                           
   6.599999E-01     G     -4.537180E-02   7.528332E-03   0.0            0.0            0.0            0.0                           
   6.799999E-01     G     -3.700558E-03  -1.679823E-03   0.0            0.0            0.0            0.0                           
   6.999999E-01     G     -2.415224E-02   3.115468E-03   0.0            0.0            0.0            0.0                           
   7.199998E-01     G     -1.187567E-01   2.253920E-02   0.0            0.0            0.0            0.0                           
   7.399998E-01     G     -2.896703E-01   5.446753E-02   0.0            0.0            0.0            0.0                           
   7.599998E-01     G     -4.887786E-01   9.096155E-02   0.0            0.0            0.0            0.0                           
   7.799998E-01     G     -6.614697E-01   1.243436E-01   0.0            0.0            0.0            0.0                           
   7.999998E-01     G     -7.862128E-01   1.497113E-01   0.0            0.0            0.0            0.0                           
1     TRUSS DYNAMIC ANALYSIS USING AUTOMATED MODAL SYNTHESIS                /    95 SUN SOLARIS NASTRAN    / MAY 17, 95 / PAGE    21
      NASTRAN DEMONSTRATION PROBLEM NO. D02-03-6A                                                                                   
0     RECOVER BBASIC , RUN 6, PHASE 3, RF 9                                                                                         
      POINT-ID =       2
                                             D I S P L A C E M E N T   V E C T O R
 
       TIME       TYPE          T1             T2             T3             R1             R2             R3
   0.0              G     -1.000000E-01  -1.394654E-13   0.0            0.0            0.0            0.0                           
   2.000000E-02     G     -8.815945E-02   1.631682E-13   0.0            0.0            0.0            0.0                           
   4.000000E-02     G     -6.656072E-02   2.530089E-14   0.0            0.0            0.0            0.0                           
   6.000000E-02     G     -3.653554E-02   1.512666E-14   0.0            0.0            0.0            0.0                           
   8.000000E-02     G     -4.480211E-03  -1.739595E-15   0.0            0.0            0.0            0.0                           
   9.999999E-02     G      3.194106E-02  -1.344566E-14   0.0            0.0            0.0            0.0                           
   1.200000E-01     G      6.737154E-02  -1.985424E-14   0.0            0.0            0.0            0.0                           
   1.400000E-01     G      8.747876E-02  -2.361819E-14   0.0            0.0            0.0            0.0                           
   1.600000E-01     G      8.548176E-02  -2.722721E-14   0.0            0.0            0.0            0.0                           
   1.800000E-01     G      6.843473E-02  -2.689852E-14   0.0            0.0            0.0            0.0                           
   2.000000E-01     G      4.407183E-02  -1.405417E-14   0.0            0.0            0.0            0.0                           
   2.200000E-01     G      1.103443E-02   2.417095E-15   0.0            0.0            0.0            0.0                           
   2.400000E-01     G     -3.025798E-02   9.428185E-15   0.0            0.0            0.0            0.0                           
   2.600000E-01     G     -6.635091E-02   1.549803E-14   0.0            0.0            0.0            0.0                           
   2.800000E-01     G     -8.341487E-02   2.637916E-14   0.0            0.0            0.0            0.0                           
   3.000000E-01     G     -8.328048E-02   3.078598E-14   0.0            0.0            0.0            0.0                           
   3.200000E-01     G     -7.347896E-02   2.433973E-14   0.0            0.0            0.0            0.0                           
   3.400000E-01     G     -5.150254E-02   1.258884E-14   0.0            0.0            0.0            0.0                           
   3.600000E-01     G     -1.380486E-02   1.714604E-15   0.0            0.0            0.0            0.0                           
   3.800000E-01     G      2.907512E-02   1.148530E-12   0.0            0.0            0.0            0.0                           
   4.000000E-01     G      1.245541E-02  -1.279549E-12   0.0            0.0            0.0            0.0                           
   4.200000E-01     G     -5.247950E-02  -1.375377E-13   0.0            0.0            0.0            0.0                           
   4.400001E-01     G     -1.738018E-01  -8.560768E-14   0.0            0.0            0.0            0.0                           
   4.600001E-01     G     -3.338889E-01  -1.623141E-14   0.0            0.0            0.0            0.0                           
   4.800001E-01     G     -5.253527E-01   3.035843E-14   0.0            0.0            0.0            0.0                           
   5.000001E-01     G     -7.059575E-01   8.512096E-14   0.0            0.0            0.0            0.0                           
   5.200000E-01     G     -8.252974E-01   1.222438E-13   0.0            0.0            0.0            0.0                           
   5.400000E-01     G     -8.613840E-01   1.316255E-13   0.0            0.0            0.0            0.0                           
   5.600000E-01     G     -8.171533E-01   1.357955E-13   0.0            0.0            0.0            0.0                           
   5.800000E-01     G     -7.085238E-01   9.333018E-14   0.0            0.0            0.0            0.0                           
   6.000000E-01     G     -5.485846E-01   1.858520E-14   0.0            0.0            0.0            0.0                           
   6.199999E-01     G     -3.519410E-01  -2.236176E-14   0.0            0.0            0.0            0.0                           
   6.399999E-01     G     -1.657290E-01  -6.552142E-14   0.0            0.0            0.0            0.0                           
   6.599999E-01     G     -4.705777E-02  -1.266143E-13   0.0            0.0            0.0            0.0                           
   6.799999E-01     G     -5.316249E-03  -1.437578E-13   0.0            0.0            0.0            0.0                           
   6.999999E-01     G     -2.580528E-02  -1.250651E-13   0.0            0.0            0.0            0.0                           
   7.199998E-01     G     -1.205863E-01  -9.294520E-14   0.0            0.0            0.0            0.0                           
   7.399998E-01     G     -2.918324E-01  -3.678723E-14   0.0            0.0            0.0            0.0                           
   7.599998E-01     G     -4.913020E-01   1.357767E-14   0.0            0.0            0.0            0.0                           
   7.799998E-01     G     -6.643022E-01   6.231484E-14   0.0            0.0            0.0            0.0                           
   7.999998E-01     G     -7.893048E-01   1.268578E-13   0.0            0.0            0.0            0.0                           
1     TRUSS DYNAMIC ANALYSIS USING AUTOMATED MODAL SYNTHESIS                /    95 SUN SOLARIS NASTRAN    / MAY 17, 95 / PAGE    22
      NASTRAN DEMONSTRATION PROBLEM NO. D02-03-6A                                                                                   
0     RECOVER BBASIC , RUN 6, PHASE 3, RF 9                                                                                         
      POINT-ID =       3
                                             D I S P L A C E M E N T   V E C T O R
 
       TIME       TYPE          T1             T2             T3             R1             R2             R3
   0.0              G     -9.972804E-02  -1.726345E-02   0.0            0.0            0.0            0.0                           
   2.000000E-02     G     -8.795284E-02  -1.602409E-02   0.0            0.0            0.0            0.0                           
   4.000000E-02     G     -6.643399E-02  -1.299208E-02   0.0            0.0            0.0            0.0                           
   6.000000E-02     G     -3.646334E-02  -7.373300E-03   0.0            0.0            0.0            0.0                           
   8.000000E-02     G     -4.473437E-03  -5.936068E-04   0.0            0.0            0.0            0.0                           
   9.999999E-02     G      3.187666E-02   6.535134E-03   0.0            0.0            0.0            0.0                           
   1.200000E-01     G      6.724679E-02   1.263359E-02   0.0            0.0            0.0            0.0                           
   1.400000E-01     G      8.732010E-02   1.617281E-02   0.0            0.0            0.0            0.0                           
   1.600000E-01     G      8.532047E-02   1.639792E-02   0.0            0.0            0.0            0.0                           
   1.800000E-01     G      6.830145E-02   1.353013E-02   0.0            0.0            0.0            0.0                           
   2.000000E-01     G      4.399038E-02   8.339021E-03   0.0            0.0            0.0            0.0                           
   2.200000E-01     G      1.101861E-02   1.591423E-03   0.0            0.0            0.0            0.0                           
   2.400000E-01     G     -3.020194E-02  -5.780797E-03   0.0            0.0            0.0            0.0                           
   2.600000E-01     G     -6.623100E-02  -1.212600E-02   0.0            0.0            0.0            0.0                           
   2.800000E-01     G     -8.325891E-02  -1.578978E-02   0.0            0.0            0.0            0.0                           
   3.000000E-01     G     -8.312082E-02  -1.634764E-02   0.0            0.0            0.0            0.0                           
   3.200000E-01     G     -7.334013E-02  -1.415126E-02   0.0            0.0            0.0            0.0                           
   3.400000E-01     G     -5.140954E-02  -9.338117E-03   0.0            0.0            0.0            0.0                           
   3.600000E-01     G     -1.378143E-02  -2.398395E-03   0.0            0.0            0.0            0.0                           
   3.800000E-01     G      2.919014E-02   7.703990E-03   0.0            0.0            0.0            0.0                           
   4.000000E-01     G      1.387250E-02   5.085935E-04   0.0            0.0            0.0            0.0                           
   4.200000E-01     G     -5.077145E-02  -7.639633E-03   0.0            0.0            0.0            0.0                           
   4.400001E-01     G     -1.718806E-01  -3.065482E-02   0.0            0.0            0.0            0.0                           
   4.600001E-01     G     -3.316626E-01  -6.272717E-02   0.0            0.0            0.0            0.0                           
   4.800001E-01     G     -5.227460E-01  -9.949066E-02   0.0            0.0            0.0            0.0                           
   5.000001E-01     G     -7.030305E-01  -1.323348E-01   0.0            0.0            0.0            0.0                           
   5.200000E-01     G     -8.221683E-01  -1.545146E-01   0.0            0.0            0.0            0.0                           
   5.400000E-01     G     -8.581591E-01  -1.628486E-01   0.0            0.0            0.0            0.0                           
   5.600000E-01     G     -8.139981E-01  -1.551891E-01   0.0            0.0            0.0            0.0                           
   5.800000E-01     G     -7.056035E-01  -1.331416E-01   0.0            0.0            0.0            0.0                           
   6.000000E-01     G     -5.459657E-01  -1.017326E-01   0.0            0.0            0.0            0.0                           
   6.199999E-01     G     -3.496642E-01  -6.553696E-02   0.0            0.0            0.0            0.0                           
   6.399999E-01     G     -1.638073E-01  -3.120855E-02   0.0            0.0            0.0            0.0                           
   6.599999E-01     G     -4.537180E-02  -7.528332E-03   0.0            0.0            0.0            0.0                           
   6.799999E-01     G     -3.700558E-03   1.679823E-03   0.0            0.0            0.0            0.0                           
   6.999999E-01     G     -2.415224E-02  -3.115468E-03   0.0            0.0            0.0            0.0                           
   7.199998E-01     G     -1.187567E-01  -2.253920E-02   0.0            0.0            0.0            0.0                           
   7.399998E-01     G     -2.896703E-01  -5.446753E-02   0.0            0.0            0.0            0.0                           
   7.599998E-01     G     -4.887786E-01  -9.096155E-02   0.0            0.0            0.0            0.0                           
   7.799998E-01     G     -6.614697E-01  -1.243436E-01   0.0            0.0            0.0            0.0                           
   7.999998E-01     G     -7.862128E-01  -1.497113E-01   0.0            0.0            0.0            0.0                           
1     TRUSS DYNAMIC ANALYSIS USING AUTOMATED MODAL SYNTHESIS                /    95 SUN SOLARIS NASTRAN    / MAY 17, 95 / PAGE    23
      NASTRAN DEMONSTRATION PROBLEM NO. D02-03-6A                                                                                   
0     RECOVER BBASIC , RUN 6, PHASE 3, RF 9                                                                                         
      POINT-ID =      11
                                             D I S P L A C E M E N T   V E C T O R
 
       TIME       TYPE          T1             T2             T3             R1             R2             R3
   0.0              G     -1.237933E-01   1.756579E-02   0.0            0.0            0.0            0.0                           
   2.000000E-02     G     -1.113268E-01   1.679232E-02   0.0            0.0            0.0            0.0                           
   4.000000E-02     G     -8.638323E-02   1.408971E-02   0.0            0.0            0.0            0.0                           
   6.000000E-02     G     -4.795023E-02   8.084430E-03   0.0            0.0            0.0            0.0                           
   8.000000E-02     G     -5.178940E-03   5.303015E-04   0.0            0.0            0.0            0.0                           
   9.999999E-02     G      4.211361E-02  -7.194262E-03   0.0            0.0            0.0            0.0                           
   1.200000E-01     G      8.627026E-02  -1.349478E-02   0.0            0.0            0.0            0.0                           
   1.400000E-01     G      1.115118E-01  -1.719277E-02   0.0            0.0            0.0            0.0                           
   1.600000E-01     G      1.102817E-01  -1.766360E-02   0.0            0.0            0.0            0.0                           
   1.800000E-01     G      8.918646E-02  -1.472755E-02   0.0            0.0            0.0            0.0                           
   2.000000E-01     G      5.661008E-02  -8.944025E-03   0.0            0.0            0.0            0.0                           
   2.200000E-01     G      1.306175E-02  -1.511429E-03   0.0            0.0            0.0            0.0                           
   2.400000E-01     G     -3.899157E-02   6.224465E-03   0.0            0.0            0.0            0.0                           
   2.600000E-01     G     -8.425346E-02   1.282643E-02   0.0            0.0            0.0            0.0                           
   2.800000E-01     G     -1.071443E-01   1.692403E-02   0.0            0.0            0.0            0.0                           
   3.000000E-01     G     -1.082833E-01   1.776134E-02   0.0            0.0            0.0            0.0                           
   3.200000E-01     G     -9.492256E-02   1.526721E-02   0.0            0.0            0.0            0.0                           
   3.400000E-01     G     -6.523303E-02   9.843878E-03   0.0            0.0            0.0            0.0                           
   3.600000E-01     G     -1.725734E-02   2.489902E-03   0.0            0.0            0.0            0.0                           
   3.800000E-01     G      4.392191E-02  -9.520222E-03   0.0            0.0            0.0            0.0                           
   4.000000E-01     G      2.296061E-02  -4.726507E-03   0.0            0.0            0.0            0.0                           
   4.200000E-01     G     -4.937012E-02   1.841250E-03   0.0            0.0            0.0            0.0                           
   4.400001E-01     G     -2.054420E-01   2.663831E-02   0.0            0.0            0.0            0.0                           
   4.600001E-01     G     -4.150992E-01   6.178701E-02   0.0            0.0            0.0            0.0                           
   4.800001E-01     G     -6.620246E-01   1.012571E-01   0.0            0.0            0.0            0.0                           
   5.000001E-01     G     -8.910643E-01   1.359746E-01   0.0            0.0            0.0            0.0                           
   5.200000E-01     G     -1.043572E+00   1.597157E-01   0.0            0.0            0.0            0.0                           
   5.400000E-01     G     -1.093137E+00   1.691233E-01   0.0            0.0            0.0            0.0                           
   5.600000E-01     G     -1.037891E+00   1.611511E-01   0.0            0.0            0.0            0.0                           
   5.800000E-01     G     -8.951988E-01   1.370759E-01   0.0            0.0            0.0            0.0                           
   6.000000E-01     G     -6.871352E-01   1.028975E-01   0.0            0.0            0.0            0.0                           
   6.199999E-01     G     -4.367505E-01   6.439175E-02   0.0            0.0            0.0            0.0                           
   6.399999E-01     G     -1.997652E-01   2.808063E-02   0.0            0.0            0.0            0.0                           
   6.599999E-01     G     -4.459813E-02   2.231114E-03   0.0            0.0            0.0            0.0                           
   6.799999E-01     G      1.206854E-02  -8.295247E-03   0.0            0.0            0.0            0.0                           
   6.999999E-01     G     -1.640109E-02  -2.716396E-03   0.0            0.0            0.0            0.0                           
   7.199998E-01     G     -1.415123E-01   1.877814E-02   0.0            0.0            0.0            0.0                           
   7.399998E-01     G     -3.602576E-01   5.268280E-02   0.0            0.0            0.0            0.0                           
   7.599998E-01     G     -6.136897E-01   9.131303E-02   0.0            0.0            0.0            0.0                           
   7.799998E-01     G     -8.374245E-01   1.274808E-01   0.0            0.0            0.0            0.0                           
   7.999998E-01     G     -1.001703E+00   1.552600E-01   0.0            0.0            0.0            0.0                           
1     TRUSS DYNAMIC ANALYSIS USING AUTOMATED MODAL SYNTHESIS                /    95 SUN SOLARIS NASTRAN    / MAY 17, 95 / PAGE    24
      NASTRAN DEMONSTRATION PROBLEM NO. D02-03-6A                                                                                   
0     RECOVER BBASIC , RUN 6, PHASE 3, RF 9                                                                                         
      POINT-ID =      12
                                             D I S P L A C E M E N T   V E C T O R
 
       TIME       TYPE          T1             T2             T3             R1             R2             R3
   0.0              G     -1.238578E-01  -1.308536E-13   0.0            0.0            0.0            0.0                           
   2.000000E-02     G     -1.114743E-01   1.530982E-13   0.0            0.0            0.0            0.0                           
   4.000000E-02     G     -8.658586E-02   2.374118E-14   0.0            0.0            0.0            0.0                           
   6.000000E-02     G     -4.807768E-02   1.419389E-14   0.0            0.0            0.0            0.0                           
   8.000000E-02     G     -5.172579E-03  -1.632200E-15   0.0            0.0            0.0            0.0                           
   9.999999E-02     G      4.223077E-02  -1.261663E-14   0.0            0.0            0.0            0.0                           
   1.200000E-01     G      8.643888E-02  -1.863048E-14   0.0            0.0            0.0            0.0                           
   1.400000E-01     G      1.117154E-01  -2.216190E-14   0.0            0.0            0.0            0.0                           
   1.600000E-01     G      1.105207E-01  -2.554939E-14   0.0            0.0            0.0            0.0                           
   1.800000E-01     G      8.940586E-02  -2.524088E-14   0.0            0.0            0.0            0.0                           
   2.000000E-01     G      5.672615E-02  -1.318797E-14   0.0            0.0            0.0            0.0                           
   2.200000E-01     G      1.305600E-02   2.267720E-15   0.0            0.0            0.0            0.0                           
   2.400000E-01     G     -3.907504E-02   8.847045E-15   0.0            0.0            0.0            0.0                           
   2.600000E-01     G     -8.439713E-02   1.454327E-14   0.0            0.0            0.0            0.0                           
   2.800000E-01     G     -1.073635E-01   2.475326E-14   0.0            0.0            0.0            0.0                           
   3.000000E-01     G     -1.085427E-01   2.888862E-14   0.0            0.0            0.0            0.0                           
   3.200000E-01     G     -9.513187E-02   2.283980E-14   0.0            0.0            0.0            0.0                           
   3.400000E-01     G     -6.533979E-02   1.181332E-14   0.0            0.0            0.0            0.0                           
   3.600000E-01     G     -1.727912E-02   1.609001E-15   0.0            0.0            0.0            0.0                           
   3.800000E-01     G      4.430058E-02   1.077630E-12   0.0            0.0            0.0            0.0                           
   4.000000E-01     G      2.376428E-02  -1.200563E-12   0.0            0.0            0.0            0.0                           
   4.200000E-01     G     -4.829058E-02  -1.290486E-13   0.0            0.0            0.0            0.0                           
   4.400001E-01     G     -2.046920E-01  -8.032071E-14   0.0            0.0            0.0            0.0                           
   4.600001E-01     G     -4.148960E-01  -1.521787E-14   0.0            0.0            0.0            0.0                           
   4.800001E-01     G     -6.623498E-01   2.849798E-14   0.0            0.0            0.0            0.0                           
   5.000001E-01     G     -8.917751E-01   7.988965E-14   0.0            0.0            0.0            0.0                           
   5.200000E-01     G     -1.044575E+00   1.147208E-13   0.0            0.0            0.0            0.0                           
   5.400000E-01     G     -1.094329E+00   1.235266E-13   0.0            0.0            0.0            0.0                           
   5.600000E-01     G     -1.039017E+00   1.274275E-13   0.0            0.0            0.0            0.0                           
   5.800000E-01     G     -8.959451E-01   8.759335E-14   0.0            0.0            0.0            0.0                           
   6.000000E-01     G     -6.873758E-01   1.745250E-14   0.0            0.0            0.0            0.0                           
   6.199999E-01     G     -4.365433E-01  -2.097257E-14   0.0            0.0            0.0            0.0                           
   6.399999E-01     G     -1.991415E-01  -6.147498E-14   0.0            0.0            0.0            0.0                           
   6.599999E-01     G     -4.357431E-02  -1.187991E-13   0.0            0.0            0.0            0.0                           
   6.799999E-01     G      1.329738E-02  -1.348864E-13   0.0            0.0            0.0            0.0                           
   6.999999E-01     G     -1.529713E-02  -1.173460E-13   0.0            0.0            0.0            0.0                           
   7.199998E-01     G     -1.407587E-01  -8.720651E-14   0.0            0.0            0.0            0.0                           
   7.399998E-01     G     -3.599140E-01  -3.451045E-14   0.0            0.0            0.0            0.0                           
   7.599998E-01     G     -6.137878E-01   1.275072E-14   0.0            0.0            0.0            0.0                           
   7.799998E-01     G     -8.380220E-01   5.848335E-14   0.0            0.0            0.0            0.0                           
   7.999998E-01     G     -1.002741E+00   1.190558E-13   0.0            0.0            0.0            0.0                           
1     TRUSS DYNAMIC ANALYSIS USING AUTOMATED MODAL SYNTHESIS                /    95 SUN SOLARIS NASTRAN    / MAY 17, 95 / PAGE    25
      NASTRAN DEMONSTRATION PROBLEM NO. D02-03-6A                                                                                   
0     RECOVER BBASIC , RUN 6, PHASE 3, RF 9                                                                                         
      POINT-ID =      13
                                             D I S P L A C E M E N T   V E C T O R
 
       TIME       TYPE          T1             T2             T3             R1             R2             R3
   0.0              G     -1.237933E-01  -1.756579E-02   0.0            0.0            0.0            0.0                           
   2.000000E-02     G     -1.113268E-01  -1.679232E-02   0.0            0.0            0.0            0.0                           
   4.000000E-02     G     -8.638323E-02  -1.408971E-02   0.0            0.0            0.0            0.0                           
   6.000000E-02     G     -4.795023E-02  -8.084430E-03   0.0            0.0            0.0            0.0                           
   8.000000E-02     G     -5.178940E-03  -5.303015E-04   0.0            0.0            0.0            0.0                           
   9.999999E-02     G      4.211361E-02   7.194262E-03   0.0            0.0            0.0            0.0                           
   1.200000E-01     G      8.627026E-02   1.349478E-02   0.0            0.0            0.0            0.0                           
   1.400000E-01     G      1.115118E-01   1.719277E-02   0.0            0.0            0.0            0.0                           
   1.600000E-01     G      1.102817E-01   1.766360E-02   0.0            0.0            0.0            0.0                           
   1.800000E-01     G      8.918646E-02   1.472755E-02   0.0            0.0            0.0            0.0                           
   2.000000E-01     G      5.661008E-02   8.944025E-03   0.0            0.0            0.0            0.0                           
   2.200000E-01     G      1.306175E-02   1.511429E-03   0.0            0.0            0.0            0.0                           
   2.400000E-01     G     -3.899157E-02  -6.224465E-03   0.0            0.0            0.0            0.0                           
   2.600000E-01     G     -8.425346E-02  -1.282643E-02   0.0            0.0            0.0            0.0                           
   2.800000E-01     G     -1.071443E-01  -1.692403E-02   0.0            0.0            0.0            0.0                           
   3.000000E-01     G     -1.082833E-01  -1.776134E-02   0.0            0.0            0.0            0.0                           
   3.200000E-01     G     -9.492256E-02  -1.526721E-02   0.0            0.0            0.0            0.0                           
   3.400000E-01     G     -6.523303E-02  -9.843878E-03   0.0            0.0            0.0            0.0                           
[...]
       TIME         STRESS       MARGIN        STRESS      MARGIN       TIME         STRESS       MARGIN        STRESS      MARGIN
   0.0            2.929199E+01              0.0                     2.000000E-02   7.339844E+01              0.0                    
   4.000000E-02   1.036553E+02              0.0                     6.000000E-02   6.664404E+01              0.0                    
   8.000000E-02  -5.386902E+00              0.0                     9.999999E-02  -6.162207E+01              0.0                    
   1.200000E-01  -8.243262E+01              0.0                     1.400000E-01  -9.808203E+01              0.0                    
   1.600000E-01  -1.200117E+02              0.0                     1.800000E-01  -1.128477E+02              0.0                    
   2.000000E-01  -5.767236E+01              0.0                     2.200000E-01   6.583252E+00              0.0                    
   2.400000E-01   4.204785E+01              0.0                     2.600000E-01   6.769531E+01              0.0                    
   2.800000E-01   1.082725E+02              0.0                     3.000000E-01   1.332715E+02              0.0                    
   3.200000E-01   1.056045E+02              0.0                     3.400000E-01   4.936621E+01              0.0                    
   3.600000E-01   9.253662E+00              0.0                     3.800000E-01  -1.750249E+02              0.0                    
   4.000000E-01  -4.024590E+02              0.0                     4.200000E-01  -5.484199E+02              0.0                    
   4.400001E-01  -3.799922E+02              0.0                     4.600001E-01  -9.218359E+01              0.0                    
   4.800001E-01   1.664219E+02              0.0                     5.000001E-01   3.483047E+02              0.0                    
   5.200000E-01   4.958516E+02              0.0                     5.400000E-01   5.957344E+02              0.0                    
   5.600000E-01   5.659922E+02              0.0                     5.800000E-01   3.738516E+02              0.0                    
   6.000000E-01   1.122891E+02              0.0                     6.199999E-01  -1.072812E+02              0.0                    
   6.399999E-01  -3.001367E+02              0.0                     6.599999E-01  -5.060728E+02              0.0                    
   6.799999E-01  -6.251489E+02              0.0                     6.999999E-01  -5.528302E+02              0.0                    
   7.199998E-01  -3.626543E+02              0.0                     7.399998E-01  -1.703086E+02              0.0                    
   7.599998E-01   3.808594E+01              0.0                     7.799998E-01   2.976172E+02              0.0                    
   7.999998E-01   5.246875E+02              0.0                                                                                     
1     TRUSS DYNAMIC ANALYSIS USING AUTOMATED MODAL SYNTHESIS                /    95 SUN SOLARIS NASTRAN    / MAY 17, 95 / PAGE    91
      NASTRAN DEMONSTRATION PROBLEM NO. D02-03-6A                                                                                   
0     RECOVER BBASIC , RUN 6, PHASE 3, RF 9                                                                                         
      ELEMENT-ID =     231

                                     S T R E S S E S   I N   R O D   E L E M E N T S      ( C R O D )
 
                     AXIAL       SAFETY      TORSIONAL     SAFETY                     AXIAL       SAFETY      TORSIONAL     SAFETY
       TIME         STRESS       MARGIN        STRESS      MARGIN       TIME         STRESS       MARGIN        STRESS      MARGIN
   0.0           -1.628516E+01              0.0                     2.000000E-02  -4.863965E+01              0.0                    
   4.000000E-02  -7.286426E+01              0.0                     6.000000E-02  -4.873877E+01              0.0                    
   8.000000E-02   6.498291E+00              0.0                     9.999999E-02   4.552002E+01              0.0                    
   1.200000E-01   5.304590E+01              0.0                     1.400000E-01   6.134863E+01              0.0                    
   1.600000E-01   8.163672E+01              0.0                     1.800000E-01   8.002148E+01              0.0                    
   2.000000E-01   3.835840E+01              0.0                     2.200000E-01  -9.061768E+00              0.0                    
   2.400000E-01  -2.884326E+01              0.0                     2.600000E-01  -4.039551E+01              0.0                    
   2.800000E-01  -7.108691E+01              0.0                     3.000000E-01  -9.443457E+01              0.0                    
   3.200000E-01  -7.260352E+01              0.0                     3.400000E-01  -2.787988E+01              0.0                    
   3.600000E-01  -4.085693E+00              0.0                     3.800000E-01   1.003223E+02              0.0                    
   4.000000E-01   2.705791E+02              0.0                     4.200000E-01   3.817832E+02              0.0                    
   4.400001E-01   2.625762E+02              0.0                     4.600001E-01   4.893750E+01              0.0                    
   4.800001E-01  -1.166328E+02              0.0                     5.000001E-01  -2.247500E+02              0.0                    
   5.200000E-01  -3.283125E+02              0.0                     5.400000E-01  -4.016250E+02              0.0                    
   5.600000E-01  -3.839062E+02              0.0                     5.800000E-01  -2.534922E+02              0.0                    
   6.000000E-01  -6.675000E+01              0.0                     6.199999E-01   7.879297E+01              0.0                    
   6.399999E-01   1.875000E+02              0.0                     6.599999E-01   3.313745E+02              0.0                    
   6.799999E-01   4.365054E+02              0.0                     6.999999E-01   3.752050E+02              0.0                    
   7.199998E-01   2.236230E+02              0.0                     7.399998E-01   1.131758E+02              0.0                    
   7.599998E-01  -8.960938E+00              0.0                     7.799998E-01  -2.013828E+02              0.0                    
   7.999998E-01  -3.618125E+02              0.0                                                                                     
1     TRUSS DYNAMIC ANALYSIS USING AUTOMATED MODAL SYNTHESIS                /    95 SUN SOLARIS NASTRAN    / MAY 17, 95 / PAGE    92
      NASTRAN DEMONSTRATION PROBLEM NO. D02-03-6A                                                                                   
0     RECOVER BBASIC , RUN 6, PHASE 3, RF 9                                                                                         
      ELEMENT-ID =     232

                                     S T R E S S E S   I N   R O D   E L E M E N T S      ( C R O D )
 
                     AXIAL       SAFETY      TORSIONAL     SAFETY                     AXIAL       SAFETY      TORSIONAL     SAFETY
       TIME         STRESS       MARGIN        STRESS      MARGIN       TIME         STRESS       MARGIN        STRESS      MARGIN
   0.0            1.628516E+01              0.0                     2.000000E-02   4.863965E+01              0.0                    
   4.000000E-02   7.286426E+01              0.0                     6.000000E-02   4.873877E+01              0.0                    
   8.000000E-02  -6.498291E+00              0.0                     9.999999E-02  -4.552002E+01              0.0                    
   1.200000E-01  -5.304590E+01              0.0                     1.400000E-01  -6.134863E+01              0.0                    
   1.600000E-01  -8.163672E+01              0.0                     1.800000E-01  -8.002148E+01              0.0                    
   2.000000E-01  -3.835840E+01              0.0                     2.200000E-01   9.061768E+00              0.0                    
   2.400000E-01   2.884326E+01              0.0                     2.600000E-01   4.039551E+01              0.0                    
   2.800000E-01   7.108691E+01              0.0                     3.000000E-01   9.443457E+01              0.0                    
   3.200000E-01   7.260352E+01              0.0                     3.400000E-01   2.787988E+01              0.0                    
   3.600000E-01   4.085693E+00              0.0                     3.800000E-01  -1.003223E+02              0.0                    
   4.000000E-01  -2.705791E+02              0.0                     4.200000E-01  -3.817832E+02              0.0                    
   4.400001E-01  -2.625762E+02              0.0                     4.600001E-01  -4.893750E+01              0.0                    
   4.800001E-01   1.166328E+02              0.0                     5.000001E-01   2.247500E+02              0.0                    
   5.200000E-01   3.283125E+02              0.0                     5.400000E-01   4.016250E+02              0.0                    
   5.600000E-01   3.839062E+02              0.0                     5.800000E-01   2.534922E+02              0.0                    
   6.000000E-01   6.675000E+01              0.0                     6.199999E-01  -7.879297E+01              0.0                    
   6.399999E-01  -1.875000E+02              0.0                     6.599999E-01  -3.313745E+02              0.0                    
   6.799999E-01  -4.365054E+02              0.0                     6.999999E-01  -3.752050E+02              0.0                    
   7.199998E-01  -2.236230E+02              0.0                     7.399998E-01  -1.131758E+02              0.0                    
   7.599998E-01   8.960938E+00              0.0                     7.799998E-01   2.013828E+02              0.0                    
   7.999998E-01   3.618125E+02              0.0                                                                                     
1     TRUSS DYNAMIC ANALYSIS USING AUTOMATED MODAL SYNTHESIS                /    95 SUN SOLARIS NASTRAN    / MAY 17, 95 / PAGE    93
      NASTRAN DEMONSTRATION PROBLEM NO. D02-03-6A                                                                                   
0     RECOVER BBASIC , RUN 6, PHASE 3, RF 9                                                                                         
      ELEMENT-ID =     241

                                     S T R E S S E S   I N   R O D   E L E M E N T S      ( C R O D )
 
                     AXIAL       SAFETY      TORSIONAL     SAFETY                     AXIAL       SAFETY      TORSIONAL     SAFETY
       TIME         STRESS       MARGIN        STRESS      MARGIN       TIME         STRESS       MARGIN        STRESS      MARGIN
   0.0           -5.470703E+00              0.0                     2.000000E-02  -1.981250E+01              0.0                    
   4.000000E-02  -3.143066E+01              0.0                     6.000000E-02  -2.176660E+01              0.0                    
   8.000000E-02   3.821655E+00              0.0                     9.999999E-02   2.050879E+01              0.0                    
   1.200000E-01   2.102930E+01              0.0                     1.400000E-01   2.358398E+01              0.0                    
   1.600000E-01   3.423047E+01              0.0                     1.800000E-01   3.479883E+01              0.0                    
   2.000000E-01   1.570703E+01              0.0                     2.200000E-01  -5.563721E+00              0.0                    
   2.400000E-01  -1.218066E+01              0.0                     2.600000E-01  -1.474121E+01              0.0                    
   2.800000E-01  -2.875000E+01              0.0                     3.000000E-01  -4.103906E+01              0.0                    
   3.200000E-01  -3.075977E+01              0.0                     3.400000E-01  -9.419922E+00              0.0                    
   3.600000E-01  -8.227539E-01              0.0                     3.800000E-01   3.506836E+01              0.0                    
   4.000000E-01   1.117280E+02              0.0                     4.200000E-01   1.633606E+02              0.0                    
   4.400001E-01   1.116523E+02              0.0                     4.600001E-01   1.510156E+01              0.0                    
   4.800001E-01  -5.028906E+01              0.0                     5.000001E-01  -8.929688E+01              0.0                    
   5.200000E-01  -1.340312E+02              0.0                     5.400000E-01  -1.670156E+02              0.0                    
   5.600000E-01  -1.602812E+02              0.0                     5.800000E-01  -1.058125E+02              0.0                    
   6.000000E-01  -2.440625E+01              0.0                     6.199999E-01   3.539844E+01              0.0                    
   6.399999E-01   7.220703E+01              0.0                     6.599999E-01   1.335178E+02              0.0                    
   6.799999E-01   1.873306E+02              0.0                     6.999999E-01   1.571729E+02              0.0                    
   7.199998E-01   8.437695E+01              0.0                     7.399998E-01   4.625781E+01              0.0                    
   7.599998E-01   3.289062E+00              0.0                     7.799998E-01  -8.415625E+01              0.0                    
   7.999998E-01  -1.537656E+02              0.0                                                                                     
1     TRUSS DYNAMIC ANALYSIS USING AUTOMATED MODAL SYNTHESIS                /    95 SUN SOLARIS NASTRAN    / MAY 17, 95 / PAGE    94
      NASTRAN DEMONSTRATION PROBLEM NO. D02-03-6A                                                                                   
0     RECOVER BBASIC , RUN 6, PHASE 3, RF 9                                                                                         
      ELEMENT-ID =     242

                                     S T R E S S E S   I N   R O D   E L E M E N T S      ( C R O D )
 
                     AXIAL       SAFETY      TORSIONAL     SAFETY                     AXIAL       SAFETY      TORSIONAL     SAFETY
       TIME         STRESS       MARGIN        STRESS      MARGIN       TIME         STRESS       MARGIN        STRESS      MARGIN
   0.0            5.470703E+00              0.0                     2.000000E-02   1.981250E+01              0.0                    
   4.000000E-02   3.143066E+01              0.0                     6.000000E-02   2.176660E+01              0.0                    
   8.000000E-02  -3.821655E+00              0.0                     9.999999E-02  -2.050879E+01              0.0                    
   1.200000E-01  -2.102930E+01              0.0                     1.400000E-01  -2.358398E+01              0.0                    
   1.600000E-01  -3.423047E+01              0.0                     1.800000E-01  -3.479883E+01              0.0                    
   2.000000E-01  -1.570703E+01              0.0                     2.200000E-01   5.563721E+00              0.0                    
   2.400000E-01   1.218066E+01              0.0                     2.600000E-01   1.474121E+01              0.0                    
   2.800000E-01   2.875000E+01              0.0                     3.000000E-01   4.103906E+01              0.0                    
   3.200000E-01   3.075977E+01              0.0                     3.400000E-01   9.419922E+00              0.0                    
   3.600000E-01   8.227539E-01              0.0                     3.800000E-01  -3.506836E+01              0.0                    
   4.000000E-01  -1.117280E+02              0.0                     4.200000E-01  -1.633606E+02              0.0                    
   4.400001E-01  -1.116523E+02              0.0                     4.600001E-01  -1.510156E+01              0.0                    
   4.800001E-01   5.028906E+01              0.0                     5.000001E-01   8.929688E+01              0.0                    
   5.200000E-01   1.340312E+02              0.0                     5.400000E-01   1.670156E+02              0.0                    
   5.600000E-01   1.602812E+02              0.0                     5.800000E-01   1.058125E+02              0.0                    
   6.000000E-01   2.440625E+01              0.0                     6.199999E-01  -3.539844E+01              0.0                    
   6.399999E-01  -7.220703E+01              0.0                     6.599999E-01  -1.335178E+02              0.0                    
   6.799999E-01  -1.873306E+02              0.0                     6.999999E-01  -1.571729E+02              0.0                    
   7.199998E-01  -8.437695E+01              0.0                     7.399998E-01  -4.625781E+01              0.0                    
   7.599998E-01  -3.289062E+00              0.0                     7.799998E-01   8.415625E+01              0.0                    
   7.999998E-01   1.537656E+02              0.0                                                                                     
1     TRUSS DYNAMIC ANALYSIS USING AUTOMATED MODAL SYNTHESIS                /    95 SUN SOLARIS NASTRAN    / MAY 17, 95 / PAGE    95
      NASTRAN DEMONSTRATION PROBLEM NO. D02-03-6A                                                                                   
0     RECOVER BBASIC , RUN 6, PHASE 3, RF 9                                                                                         


                          S U B S T R U C T U R E   O P E R A T I N G   F I L E   T A B L E   O F   C O N T E N T S 

                                                    E  B  C  L  P  K  M  P  P  U  H  U  Q  S  P  P  L  L  G  P  L  K  B  P  H      
                                                    Q  G  S  O  L  M  M  V  O  P  O  V  V  O  A  O  O  M  I  H  A  4  M  H  L      
                                                    S  S  T  D  T  T  T  E  V  R  R  E  E  L  P  A  A  T  M  I  M  M  T  I  F      
     SUBSTRUCTURE                                   S  S  M  S  S  X  X  C  E  T  G  C  C  N  P  P  P  X  S  S  S  X  X  L  T      
     NO.   NAME    TYPE   SS   PS   LL   CS   HL    --------------------------------------------------------------------------------

       1  ABASIC     B     0    0    0    0    3    3  3     3     3  3  3  3  3  3  4     3              3  3  3            
       2  BBASIC     B     0    0    0    0    4    3  3     3     3  3  3  3  3  3  4     3              3  3  3            
       3  MA         M     0    0    1    4    5    3  3     3     3  3  3        3  4     3                                 
       4  MB         M     0    0    2    3    5    3  3     3     3  3  3        3  4     3                                 
       5  MCOMB      C     0    0    3    0    6    3  3     3  3  3  3  3  3  3  3  4     3              3  3  3            
       6  RTRUSS     M     0    0    5    0    0    3  3     3  3  3  3  3           4     3                                 


                                                   SIZE OF ITEM IS GIVEN IN POWERS OF TEN   (0 INDICATES DATA IS STORED IN PRIMARY)
0*** UNUSED SPACE ON SOF =   386048 WORDS.
                      OR =      377 BLOCKS.
                      OR =       77 PERCENT.
0*** HIGHEST BLOCK USED  =      111




                                        * * * END OF JOB * * *
1
 JOB TITLE =  TRUSS DYNAMIC ANALYSIS USING AUTOMATED MODAL SYNTHESIS             
 DATE:  5/17/95
 END TIME: 15:29:45
 TOTAL WALL CLOCK TIME      3 SEC.
 
