





                                  ****
                                *      *
                               *        *
                               *  N A S T R A N
                               *        *
                                *      *
                                  ****


                             SUN COMPUTER SYSTEMS    
                                SOLARIS VERSION

                          SYSTEM RELEASE -  1995 ED.

                                DISTRIBUTED BY

         COMPUTER SOFTWARE MANAGEMENT AND INFORMATION CENTER (COSMIC)
                 UNIVERSITY OF GEORGIA, ATHENS, GEORGIA 30602
                 PHONE: (706)542-3265      FAX: (706)542-4807
1                                                                           /    95 SUN SOLARIS NASTRAN    / MAY 17, 95 / PAGE     2
                                                                                                                                    
0                                                                                                                                   
                                                                                                         
                                                                                                         
                         INSTALLATION CENTER USER INFORMATION GIVEN IN THIS SECTION                      
                                                                                                         
                                     *********************************************                       
                                     *                                           *                       
                                     *  PLEASE READ THE COMMENT IN DEMO PROBLEM  *                       
                                     *  D01002A ABOUT SYSTEM TIMING CONSTANTS    *                       
                                     *                                           *                       
                                     *********************************************                       
                                                                                                         
                         ===X=    TOP OF PAGE REQUEST IF 'X' IS REPLACED BY '='                          
                                                                                                         
1                                                                           /    95 SUN SOLARIS NASTRAN    / MAY 17, 95 / PAGE     3
                                                                                                                                    
0                                                                                                                                   
0*** USER INFORMATION MESSAGE 225, GINO TIME CONSTANTS ARE BEING COMPUTED
     (SEE NASINFO FILE FOR ELIMINATION OF THESE COMPUTATIONS)
1                                                                           /    95 SUN SOLARIS NASTRAN    / MAY 17, 95 / PAGE     4
                                                                                                                                    
0        N A S T R A N    E X E C U T I V E    C O N T R O L    D E C K    E C H O                                                  
0                                                                                                                                   
                                                                                                                                    
                                                                                                                                    
     ID    D02025A,NASTRAN                                                           
     APP   DISP,SUBS                                                                 
     SOL   1,0                                                                       
     TIME  5                                                                         
     DIAG  23                                                                        
     CEND                                                                            


0*** USER INFORMATION MESSAGE, TURN DIAG 48 ON FOR NASTRAN RELEASE NEWS, DIAG DEFINITION, NEW DMAP
         MODULES AND NEW BULKDATA CARDS INFORMATION
1                                                                           /    95 SUN SOLARIS NASTRAN    / MAY 17, 95 / PAGE     5
                                                                                                                                    
0                            N A S T R A N  S U B S T R U C T U R E  D E C K  E C H O                                               
0                                                                                                                                   
                                                                                                                                    
                                                                                                                                    
     SUBSTRUCTURE PHASE3                                                             
       PASSWORD = DEMO                                                               
        SOF(1)  = FT18,950 $ DEC VAX                                                 
        SOFPRINT TOC                                                                 
     RECOVER RVANE1                                                                  
       ENDSUBS
1                                                                           /    95 SUN SOLARIS NASTRAN    / MAY 17, 95 / PAGE     6
                                                                                                                                    
0                            N A S T R A N  S U B S T R U C T U R E  D E C K  E C H O                                               
0                                                                                                                                   
                                                                                                                                    
                                                                                                                                    
     ALTER DECK ECHO
        1    ALTER         78, 85
        2    PARAM     //*ADD*/DRY/1  /0 $                                           
        3    LABEL     LBSBEG $                                                      
        4    SOFUT     //DRY/*TOC     */*SOFP*/0  /*        */*    */*    */*    */  
        5              *    */*    */*    * $                                        
        6    ALTER         88, 95
        7    PARAM     //*NOP*/ALWAYS=-1 $                                           
        8    SSG2      USET,GM,YS,KFS,GO,,PG/QR,PO,PS,PL $                           
        9    RCOVR3    ,PG,PS,PO,YS/ULV ,QAS,PGS,PSS,POS,YSS,    /1   /*RVANE1  */   
       10                   $                                                        
       11    EQUIV     PGS,PG/ALWAYS $                                               
       12    EQUIV     PSS,PS/ALWAYS $                                               
       13    EQUIV     POS,PO/ALWAYS $                                               
       14    EQUIV     YSS,YS/ALWAYS $                                               
       15    COND      LBS3  ,OMIT $                                                 
       16    FBS       LOO,,POS/UOOV/1/1/2   /0 $                                    
       17    LABEL     LBS3   $                                                      
       18    ALTER         96
       19    UMERGE    USET,QAS,/QGS/*G*/*A*/*O* $                                   
       20    ADD       QG ,QGS/QGT/  (1.0,0.0)/(1.0,0.0) $                           
       21    EQUIV     QGT,QG /ALWAYS $                                              
       22    LABEL     LBSEND $                                                      
1     WINDMILL PANEL SECTIONS FOR AUTOMATED MULTI-STAGE SUBSTRUCTUR         /    95 SUN SOLARIS NASTRAN    / MAY 17, 95 / PAGE     7
      NASTRAN DEMONSTRATION PROBLEM NO. D02-02-5A                                                                                   
0     RECOVER RVANE1, RUN 5, PHASE 3                                                                                                
0                                        C A S E    C O N T R O L   D E C K   E C H O                                               
                 CARD                                                                                                               
                 COUNT                                                                                                              
                  1      TITLE    = WINDMILL PANEL SECTIONS FOR AUTOMATED MULTI-STAGE SUBSTRUCTURING     
                  2      SUBTITLE = NASTRAN DEMONSTRATION PROBLEM NO. D02-02-5A                          
                  3      LABEL    = RECOVER RVANE1, RUN 5, PHASE 3                                       
                  4          DISP = ALL                                                                  
                  5        STRESS = ALL                                                                  
                  6      SUBCASE 1                                                                       
                  7      LABEL = ROTATIOAL FORCES ABOUT CENTER OF OVERALL STRUCTURE                      
                  8      SUBCASE 2                                                                       
                  9      LABEL = EXTENSION OF RIGHT PANEL AND COMPRESSION OF BOTTOM PANEL                
                 10      SUBCASE 3                                                                       
                 11      LABEL = CHECK ON RELEASE FEATURE AT GRID POINT 5                                
                 12      BEGIN BULK                                                                      


                        (NO. OF UNSORTED BULK DATA CARDS READ =    20, INCLUDING   0 COMMENT CARDS)
0*** USER INFORMATION MESSAGE 207, BULK DATA DECK IS NOT SORTED. NASTRAN WILL RE-ORDER THE INPUT DECK.
1     WINDMILL PANEL SECTIONS FOR AUTOMATED MULTI-STAGE SUBSTRUCTUR         /    95 SUN SOLARIS NASTRAN    / MAY 17, 95 / PAGE     8
      NASTRAN DEMONSTRATION PROBLEM NO. D02-02-5A                                                                                   
0     RECOVER RVANE1, RUN 5, PHASE 3                                                                                                
0                                                 S O R T E D   B U L K    D A T A    E C H O                                       
                     CARD                                                                                                           
                     COUNT        ---1--- +++2+++ ---3--- +++4+++ ---5--- +++6+++ ---7--- +++8+++ ---9--- +++10+++                  
                    1-        CORD2R  1               5.0     22.5    .0      5.0     22.5    1.0     +A      
                    2-        +A      .0      22.5    .0                                                      
                    3-        CQDMEM  1       10      3       4       2       1                               
                    4-        CQDMEM  2       10      5       6       4       3                               
                    5-        CQDMEM  3       10      7       8       6       5                               
                    6-        FORCE1  2       1       25.0    4       2                                       
                    7-        FORCE1  2       2       25.0    4       2                                       
                    8-        GRDSET                                          1       3456                    
                    9-        GRID    1               .0      22.5                                            
                   10-        GRID    2               5.0     22.5                                            
                   11-        GRID    3               .0      15.0                                            
                   12-        GRID    4               5.0     15.0                                            
                   13-        GRID    5               .0      7.5                                             
                   14-        GRID    6               5.0     7.5                                             
                   15-        GRID    7               .0      .0                                              
                   16-        GRID    8               5.0     .0                                              
                   17-        GRID    9               .0      -27.5                   123456                  
                   18-        MAT1    50      1.0+7           .25     2.5E-4  1.0E-6  70.0                    
                   19-        PQDMEM  10      50      .1                                                      
                   20-        RFORCE  1       9               .1591579.0      .0      1.0                     
                              ENDDATA
1     WINDMILL PANEL SECTIONS FOR AUTOMATED MULTI-STAGE SUBSTRUCTUR         /    95 SUN SOLARIS NASTRAN    / MAY 17, 95 / PAGE     9
      NASTRAN DEMONSTRATION PROBLEM NO. D02-02-5A                                                                                   
0     RECOVER RVANE1, RUN 5, PHASE 3                                                                                                
0         COSMIC / NASTRAN DMAP COMPILER - SOURCE LISTING                                                                           
                                                                                                                                    
                                                                                                                                    
0  OPTIONS IN EFFECT GO      ERR=2   LIST    NODECK  NOREF   NOOSCAR 
   -----------------


       1  BEGIN    DISP 01 - STATIC ANALYSIS - APR. 1995 $                        

       2  FILE     OPTP2=SAVE/EST1=SAVE $                                         

       3  FILE     QG=APPEND/PGG=APPEND/UGV=APPEND/GM=SAVE/KNN=SAVE $             

       4  SETVAL   //V,Y,INTERACT/0/V,Y,SYS21/0 $                                 

       5  PARAM    //*MPY*/CARDNO/0/0 $                                           

       6  COMPOFF  1,INTERACT $                                                   

       7  PRECHK   ALL $                                                          

       8  COMPON   1,INTERACT $                                                   

      10  COMPOFF  LBLINT02,SYS21 $                                               

      11  GP1      GEOM1,GEOM2,/GPL,EQEXIN,GPDT,CSTM,BGPDT,SIL/S,N,LUSET/         
                   NOGPDT/ALWAYS=-1 $                                             

      12  ANISOP   GEOM1,EPT,BGPDT,EQEXIN,MPT/MPTA/S,N,ISOP $                     

      13  EQUIV    MPTA,MPT/ISOP $                                                

      14  PLTTRAN  BGPDT,SIL/BGPDP,SIP/LUSET/S,N,LUSEP $                          

      15  GP2      GEOM2,EQEXIN/ECT $                                             

      16  PARAML   PCDB//*PRES*////JUMPPLOT $                                     

      17  PURGE    PLTSETX,PLTPAR,GPSETS,ELSETS/JUMPPLOT $                        

      18  COND     P1,JUMPPLOT $                                                  

      19  PLTSET   PCDB,EQEXIN,ECT,EPT/PLTSETX,PLTPAR,GPSETS,ELSETS/S,N,NSIL/     
                   S,N,JUMPPLOT $                                                 

      20  PRTMSG   PLTSETX// $                                                    

      21  PARAM    //*MPY*/PLTFLG/1/1 $                                           
1     WINDMILL PANEL SECTIONS FOR AUTOMATED MULTI-STAGE SUBSTRUCTUR         /    95 SUN SOLARIS NASTRAN    / MAY 17, 95 / PAGE    10
      NASTRAN DEMONSTRATION PROBLEM NO. D02-02-5A                                                                                   

      RECOVER RVANE1, RUN 5, PHASE 3                                                                                                

          COSMIC / NASTRAN DMAP COMPILER - SOURCE LISTING                                                                           
                                                                                                                                    
                                                                                                                                    

      22  PARAM    //*MPY*/PFILE/0/0 $                                            

      23  COND     P1,JUMPPLOT $                                                  

      24  PLOT     PLTPAR,GPSETS,ELSETS,CASECC,BGPDT,EQEXIN,SIL,,ECT,,,,/PLOTX1/  
                   NSIL/LUSET/S,N,JUMPPLOT/S,N,PLTFLG/S,N,PFILE  $                

      25  PRTMSG   PLOTX1// $                                                     

      26  LABEL    P1 $                                                           

      27  GP3      GEOM3,EQEXIN,GEOM2/SLT,GPTT/S,N,NOGRAV/NEVER=1 $               

      28  PARAM    //*AND*/NOMGG/NOGRAV/V,Y,GRDPNT=-1 $                           

      29  TA1      ECT,EPT,BGPDT,SIL,GPTT,CSTM,MPT,EQEXIN/EST,GEI,GPECT,,,MPTX,   
                   PCOMPS,EPTX/LUSET/S,N,NOSIMP/1/S,N,NOGENL/GENEL/S,N,COMPS $    

      30  EQUIV    MPTX,MPT/COMPS/EPTX,EPT/COMPS $                                

      31  PARAM    //*AND*/NOELMT/NOGENL/NOSIMP $                                 

      32  COND     ERROR4,NOELMT $                                                

      33  PURGE    KGGX/NOSIMP $                                                  

      34  OPTPR1   MPT,EPT,ECT,DIT,EST/OPTP1/S,N,PRINT/S,N,TSTART/S,N,COUNT $     

      35  LABEL    LOOPTOP $                                                      

      36  COND     LBL1,NOSIMP $                                                  

      37  PARAM    //*ADD*/NOKGGX/1/0 $                                           

      38  EQUIV    OPTP1,OPTP2/NEVER/EST,EST1/NEVER $                             

      39  EMG      EST,CSTM,MPT,DIT,GEOM2,/KELM,KDICT,MELM,MDICT,,,/S,N,NOKGGX/   
                   S,N,NOMGG////C,Y,COUPMASS/C,Y,CPBAR/                           
                   C,Y,CPROD/C,Y,CPQUAD1/C,Y,CPQUAD2/C,Y,CPTRIA1/C,Y,CPTRIA2/     
                   C,Y,CPTUBE/C,Y,CPQDPLT/C,Y,CPTRPLT/C,Y,CPTRBSC/                
                   C,Y,VOLUME/C,Y,SURFACE $                                       

      40  COND     JMPKGG,NOKGGX $                                                

      41  EMA      GPECT,KDICT,KELM/KGGX $                                        
1     WINDMILL PANEL SECTIONS FOR AUTOMATED MULTI-STAGE SUBSTRUCTUR         /    95 SUN SOLARIS NASTRAN    / MAY 17, 95 / PAGE    11
      NASTRAN DEMONSTRATION PROBLEM NO. D02-02-5A                                                                                   

      RECOVER RVANE1, RUN 5, PHASE 3                                                                                                

          COSMIC / NASTRAN DMAP COMPILER - SOURCE LISTING                                                                           
                                                                                                                                    
                                                                                                                                    

      42  LABEL    JMPKGG $                                                       

      43  PURGE    MGG/NOMGG $                                                    

      44  COND     JMPMGG,NOMGG $                                                 

      45  EMA      GPECT,MDICT,MELM/MGG/-1/C,Y,WTMASS=1.0 $                       

      46  PURGE    MDICT,MELM/ALWAYS $                                            

      47  LABEL    JMPMGG $                                                       

      48  COND     LBL1,GRDPNT $                                                  

      49  COND     ERROR2,NOMGG $                                                 

      50  GPWG     BGPDP,CSTM,EQEXIN,MGG/OGPWG/V,Y,GRDPNT/C,Y,WTMASS $            

      51  OFP      OGPWG,,,,,//S,N,CARDNO $                                       

      52  LABEL    LBL1 $                                                         

      53  EQUIV    KGGX,KGG/NOGENL $                                              

      54  COND     LBL11A,NOGENL $                                                

      55  SMA3     GEI,KGGX/KGG/LUSET/NOGENL/NOSIMP $                             

      56  LABEL    LBL11A $                                                       

      57  GPSTGEN  KGG,SIL/GPST $                                                 

      58  PARAM    //*MPY*/NSKIP/0/0 $                                            

      59  LABEL    LBL11 $                                                        

      60  GP4      CASECC,GEOM4,EQEXIN,GPDT,BGPDT,CSTM,GPST/RG,YS,USET,           
                   ASET,OGPST/LUSET/S,N,MPCF1/S,N,MPCF2/S,N,SINGLE/S,N,OMIT/      
                   S,N,REACT/S,N,NSKIP/S,N,REPEAT/S,N,NOSET/S,N,NOL/S,N,NOA/      
                   C,Y,ASETOUT/C,Y,AUTOSPC $                                      

      61  OFP      OGPST,,,,,//S,N,CARDNO $                                       

      62  COND     ERROR3,NOL $                                                   

      63  PARAM    //*AND*/NOSR/SINGLE/REACT $                                    
1     WINDMILL PANEL SECTIONS FOR AUTOMATED MULTI-STAGE SUBSTRUCTUR         /    95 SUN SOLARIS NASTRAN    / MAY 17, 95 / PAGE    12
      NASTRAN DEMONSTRATION PROBLEM NO. D02-02-5A                                                                                   

      RECOVER RVANE1, RUN 5, PHASE 3                                                                                                

          COSMIC / NASTRAN DMAP COMPILER - SOURCE LISTING                                                                           
                                                                                                                                    
                                                                                                                                    

      64  PURGE    KRR,KLR,QR,DM/REACT/GM/MPCF1/GO,KOO,LOO,PO,UOOV,RUOV/OMIT/PS,  
                   KFS,KSS/SINGLE/QG/NOSR $                                       

      65  EQUIV    KGG,KNN/MPCF1 $                                                

      66  COND     LBL2,MPCF2 $                                                   

      67  MCE1     USET,RG/GM $                                                   

      68  MCE2     USET,GM,KGG,,,/KNN,,, $                                        

      69  LABEL    LBL2 $                                                         

      70  EQUIV    KNN,KFF/SINGLE $                                               

      71  COND     LBL3,SINGLE $                                                  

      72  SCE1     USET,KNN,,,/KFF,KFS,KSS,,, $                                   

      73  LABEL    LBL3 $                                                         

      74  EQUIV    KFF,KAA/OMIT $                                                 

      75  COND     LBL5,OMIT $                                                    

      76  SMP1     USET,KFF,,,/GO,KAA,KOO,LOO,,,,, $                              

      77  LABEL    LBL5 $                                                         

      85  PARAM     //*ADD*/DRY/1  /0 $                                           

      85  LABEL     LBSBEG $                                                      

      85  SOFUT     //DRY/*TOC     */*SOFP*/0  /*        */*    */*    */*    */  
                    *    */*    */*    * $                                        

      86  SSG1     SLT,BGPDT,CSTM,SIL,EST,MPT,GPTT,EDT,MGG,CASECC,DIT,PCOMPS/     
                   PG,,,,/LUSET/NSKIP/COMPS $                                     

      87  EQUIV    PG,PL/NOSET $                                                  

      95  PARAM     //*NOP*/ALWAYS=-1 $                                           
0*** USER WARNING MESSAGE   42,
                              POSSIBLE ERROR IN DMAP INSTRUCTION PARAM      INSTRUCTION NO.  95
     PARAMETER NAMED ALWAYS   ALREADY HAD VALUE ASSIGNED PREVIOUSLY
1     WINDMILL PANEL SECTIONS FOR AUTOMATED MULTI-STAGE SUBSTRUCTUR         /    95 SUN SOLARIS NASTRAN    / MAY 17, 95 / PAGE    13
      NASTRAN DEMONSTRATION PROBLEM NO. D02-02-5A                                                                                   

      RECOVER RVANE1, RUN 5, PHASE 3                                                                                                

          COSMIC / NASTRAN DMAP COMPILER - SOURCE LISTING                                                                           
                                                                                                                                    
                                                                                                                                    

      95  SSG2      USET,GM,YS,KFS,GO,,PG/QR,PO,PS,PL $                           

      95  RCOVR3    ,PG,PS,PO,YS/ULV ,QAS,PGS,PSS,POS,YSS,    /1   /*RVANE1  */   
                         $                                                        

      95  EQUIV     PGS,PG/ALWAYS $                                               

      95  EQUIV     PSS,PS/ALWAYS $                                               

      95  EQUIV     POS,PO/ALWAYS $                                               

      95  EQUIV     YSS,YS/ALWAYS $                                               

      95  COND      LBS3  ,OMIT $                                                 

      95  FBS       LOO,,POS/UOOV/1/1/2   /0 $                                    

      95  LABEL     LBS3   $                                                      

      96  SDR1     USET,PG,ULV,UOOV,YS,GO,GM,PS,KFS,KSS,QR/UGV,PGG,QG/NSKIP/      
                   *STATICS* $                                                    

      96  UMERGE    USET,QAS,/QGS/*G*/*A*/*O* $                                   

      96  ADD       QG ,QGS/QGT/  (1.0,0.0)/(1.0,0.0) $                           

      96  EQUIV     QGT,QG /ALWAYS $                                              

      96  LABEL     LBSEND $                                                      

      97  COND     LBL8,REPEAT $                                                  

      98  REPT     LBL11,360 $                                                    

      99  JUMP     ERROR1 $                                                       

     100  PARAM    //*NOT*/TEST/REPEAT $                                          

     101  COND     ERROR5,TEST $                                                  

     102  LABEL    LBL8 $                                                         

     103  GPFDR    CASECC,UGV,KELM,KDICT,ECT,EQEXIN,GPECT,PGG,QG/ONRGY1,OGPFB1/   
                   *STATICS* $                                                    

     104  PURGE    KDICT,KELM/REPEAT $                                            
1     WINDMILL PANEL SECTIONS FOR AUTOMATED MULTI-STAGE SUBSTRUCTUR         /    95 SUN SOLARIS NASTRAN    / MAY 17, 95 / PAGE    14
      NASTRAN DEMONSTRATION PROBLEM NO. D02-02-5A                                                                                   

      RECOVER RVANE1, RUN 5, PHASE 3                                                                                                

          COSMIC / NASTRAN DMAP COMPILER - SOURCE LISTING                                                                           
                                                                                                                                    
                                                                                                                                    

     105  OFP      ONRGY1,OGPFB1,,,,//S,N,CARDNO $                                

     106  COND     NOMPCF,GRDEQ $                                                 

     107  EQMCK    CASECC,EQEXIN,GPL,BGPDT,SIL,USET,KGG,GM,UGV,PGG,QG,CSTM/       
                   OQM1/V,Y,OPT=0/V,Y,GRDEQ/NSKIP $                               

     108  OFP      OQM1,,,,,//S,N,CARDNO $                                        

     109  LABEL    NOMPCF $                                                       

     110  SDR2     CASECC,CSTM,MPT,DIT,EQEXIN,SIL,GPTT,EDT,BGPDP,,QG,UGV,EST,     
                   XYCDB,PGG,PCOMPS/OPG1,OQG1,OUGV1,OES1,OEF1,PUGV1,OES1L,        
                   OEF1L/*STATICS*/S,N,NOSORT2/-1/S,N,STRNFLG/COMPS $             

     111  COND     LBLSTRS,STRESS $                                               

     112  CURV     OES1,MPT,CSTM,EST,SIL,GPL/OES1M,OES1G/V,Y,STRESS/              
                   V,Y,NINTPTS $                                                  

     113  LABEL    LBLSTRS $                                                      

     114  PURGE    OES1M/STRESS $                                                 

     115  COND     LBLSTRN,STRNFLG $                                              

     116  SDR2     CASECC,CSTM,MPT,DIT,EQEXIN,SIL,GPTT,EDT,BGPDT,,,UGV,EST,,,/    
                   ,,,OES1A,,,,/*STATICS*//1 $                                    

     117  COND     LBLSTRN,STRAIN $                                               

     118  CURV     OES1A,MPT,CSTM,EST,SIL,GPL/OES1AM,OES1AG/V,Y,STRAIN/           
                   V,Y,NINTPTS $                                                  

     119  LABEL    LBLSTRN $                                                      

     120  PURGE    OES1A/STRNFLG $                                                

     121  COND     LBL17,NOSORT2 $                                                

     122  SDR3     OUGV1,OPG1,OQG1,OEF1,OES1,/OUGV2,OPG2,OQG2,OEF2,OES2, $        

     123  PARAM    //*SUB*/PRTSORT2/NOSORT2/1 $                                   

     124  COND     LBLSORT1,PRTSORT2 $                                            
1     WINDMILL PANEL SECTIONS FOR AUTOMATED MULTI-STAGE SUBSTRUCTUR         /    95 SUN SOLARIS NASTRAN    / MAY 17, 95 / PAGE    15
      NASTRAN DEMONSTRATION PROBLEM NO. D02-02-5A                                                                                   

      RECOVER RVANE1, RUN 5, PHASE 3                                                                                                

          COSMIC / NASTRAN DMAP COMPILER - SOURCE LISTING                                                                           
                                                                                                                                    
                                                                                                                                    

     125  OFP      OUGV2,OPG2,OQG2,OEF2,OES2,//S,N,CARDNO $                       

     126  SCAN     CASECC,OES2,OEF2,,/OESF2,/*RF* $                               

     127  OFP      OESF2,,,,,//S,N,CARDNO $                                       

     128  JUMP     LBLXYPLT $                                                     

     129  LABEL    LBLSORT1 $                                                     

     130  OFP      OUGV1,OPG1,OQG1,OEF1,OES1,//S,N,CARDNO $                       

     131  OFP      OEF1L,OES1L,,,,//S,N,CARDNO $                                  

     132  SCAN     CASECC,OES1,OEF1,OES1L,OEF1L/OESF1,OESF1L/*RF* $               

     133  OFP      OESF1,OESF1L,,,,//S,N,CARDNO $                                 

     134  LABEL    LBLXYPLT $                                                     

     135  OFP      OES1M,OES1G,OES1A,OES1AM,OES1AG,//S,N,CARDNO $                 

     136  XYTRAN   XYCDB,OPG2,OQG2,OUGV2,OES2,OEF2/XYPLTT/*TRAN*/*PSET*/S,N,      
                   PFILE/S,N,CARDNO $                                             

     137  XYPLOT   XYPLTT// $                                                     

     138  JUMP     DPLOT $                                                        

     139  LABEL    LBL17 $                                                        

     140  PURGE    OUGV2/NOSORT2 $                                                

     141  COND     LBLOFP,COUNT $                                                 

     142  OPTPR2   OPTP1,OES1,EST/OPTP2,EST1/S,N,PRINT/TSTART/S,N,COUNT/S,N,      
                   CARDNO $                                                       

     143  EQUIV    EST1,EST/ALWAYS/OPTP2,OPTP1/ALWAYS $                           

     144  COND     LOOPEND,PRINT $                                                

     145  LABEL    LBLOFP $                                                       

     146  OFP      OUGV1,OPG1,OQG1,OEF1,OES1,//S,N,CARDNO $                       
1     WINDMILL PANEL SECTIONS FOR AUTOMATED MULTI-STAGE SUBSTRUCTUR         /    95 SUN SOLARIS NASTRAN    / MAY 17, 95 / PAGE    16
      NASTRAN DEMONSTRATION PROBLEM NO. D02-02-5A                                                                                   

      RECOVER RVANE1, RUN 5, PHASE 3                                                                                                

          COSMIC / NASTRAN DMAP COMPILER - SOURCE LISTING                                                                           
                                                                                                                                    
                                                                                                                                    

     147  OFP      OEF1L,OES1L,,,,//S,N,CARDNO $                                  

     148  SCAN     CASECC,OES1,OEF1,OES1L,OEF1L/OESF1X,OESF1Y/*RF* $              

     149  OFP      OESF1X,OESF1Y,,,,//S,N,CARDNO $                                

     150  OFP      OES1M,OES1G,OES1A,OES1AM,OES1AG,//S,N,CARDNO $                 

     151  LABEL    DPLOT $                                                        

     152  COND     P2,JUMPPLOT $                                                  

     153  PLOT     PLTPAR,GPSETS,ELSETS,CASECC,BGPDT,EQEXIN,SIP,PUGV1,,GPECT,OES1,
                   OES1L,ONRGY1/PLOTX2/NSIL/LUSEP/JUMPPLOT/PLTFLG/S,N,PFILE $     

     154  PRTMSG   PLOTX2// $                                                     

     155  LABEL    P2 $                                                           

     156  LABEL    LOOPEND $                                                      

     157  COND     FINIS,COUNT $                                                  

     158  REPT     LOOPTOP,360 $                                                  

     159  JUMP     FINIS $                                                        

     160  LABEL    ERROR1 $                                                       

     161  PRTPARM  //-1/*STATICS* $                                               

     162  LABEL    ERROR2 $                                                       

     163  PRTPARM  //-2/*STATICS* $                                               

     164  LABEL    ERROR3 $                                                       

     165  PRTPARM  //-3/*STATICS* $                                               

     166  LABEL    ERROR4 $                                                       

     167  PRTPARM  //-4/*STATICS* $                                               

     168  LABEL    ERROR5 $                                                       

     169  PRTPARM  //-5/*STATICS* $                                               
1     WINDMILL PANEL SECTIONS FOR AUTOMATED MULTI-STAGE SUBSTRUCTUR         /    95 SUN SOLARIS NASTRAN    / MAY 17, 95 / PAGE    17
      NASTRAN DEMONSTRATION PROBLEM NO. D02-02-5A                                                                                   

      RECOVER RVANE1, RUN 5, PHASE 3                                                                                                

          COSMIC / NASTRAN DMAP COMPILER - SOURCE LISTING                                                                           
                                                                                                                                    
                                                                                                                                    

     170  LABEL    FINIS $                                                        

     171  PURGE    DUMMY/ALWAYS $                                                 

     172  LABEL    LBLINT02 $                                                     

     173  COMPON   LBLINT01,SYS21 $                                               

     228  END      $                                                              
0*** USER WARNING MESSAGE   27,
     LABEL NAMED LBSEND   NOT REFERENCED
0*** USER WARNING MESSAGE   27,
     LABEL NAMED LBSBEG   NOT REFERENCED
0*** USER INFORMATION MESSAGE -  GRID-POINT RESEQUENCING PROCESSOR BANDIT IS NOT USED DUE TO
     SMALL PROBLEM SIZE
0          **NO ERRORS FOUND - EXECUTE NASTRAN PROGRAM**
1     WINDMILL PANEL SECTIONS FOR AUTOMATED MULTI-STAGE SUBSTRUCTUR         /    95 SUN SOLARIS NASTRAN    / MAY 17, 95 / PAGE    18
      NASTRAN DEMONSTRATION PROBLEM NO. D02-02-5A                                                                                   

      RECOVER RVANE1, RUN 5, PHASE 3                                                                                                




0*** USER WARNING MESSAGE 2015, EITHER NO ELEMENTS CONNECTED TO EXTERNAL GRID POINT        9
     OR IT IS CONNECTED TO A RIGID ELEMENT OR A GENERAL ELEMENT.
0*** USER INFORMATION MESSAGE 238, TURN DIAG 38 ON FOR ADDITIONAL ELEMENT PROCESSING INFORMATION

0*** USER INFORMATION MESSAGE 3113,
     EMG MODULE PROCESSING DOUBLE PRECISION QDMEM    ELEMENTS (ELEMENT TYPE  16) STARTING WITH ID        1
0*** SYSTEM INFORMATION MESSAGE 6201,  1 FILES HAVE BEEN ALLOCATED TO THE SOF WHERE --
     SIZE OF FILE  1 =        926 BLOCKS
     AND WHERE A BLOCK CONTAINS 1024 WORDS
1     WINDMILL PANEL SECTIONS FOR AUTOMATED MULTI-STAGE SUBSTRUCTUR         /    95 SUN SOLARIS NASTRAN    / MAY 17, 95 / PAGE    19
      NASTRAN DEMONSTRATION PROBLEM NO. D02-02-5A                                                                                   
0     RECOVER RVANE1, RUN 5, PHASE 3                                                                                                


                          S U B S T R U C T U R E   O P E R A T I N G   F I L E   T A B L E   O F   C O N T E N T S 

                                                    E  B  C  L  P  K  M  P  P  U  H  U  Q  S  P  P  L  L  G  P  L  K  B  P  H      
                                                    Q  G  S  O  L  M  M  V  O  P  O  V  V  O  A  O  O  M  I  H  A  4  M  H  L      
                                                    S  S  T  D  T  T  T  E  V  R  R  E  E  L  P  A  A  T  M  I  M  M  T  I  F      
     SUBSTRUCTURE                                   S  S  M  S  S  X  X  C  E  T  G  C  C  N  P  P  P  X  S  S  S  X  X  L  T      
     NO.   NAME    TYPE   SS   PS   LL   CS   HL    --------------------------------------------------------------------------------

       1  HUB        B     0    0    0   27   28    3  3  3  3  3  3  3  3        3  3     3                                 
       2  ROOT1      B    24    0    0    6    7    3  3     3  3  3  3  3        3                                          
       3  VANE1      B    15    0    0    4    5    3  3  3  3  3  3  3  3        3                                          
       4  VANE2      B    14    3    0    3    5    3  0  0  3  3  0  0  0        3                                          
       5  VANETOP    C    16    0    3    7   26    3  3  3  3  3  3  3  3        3                                          
       6  ROOT2      B    23    2    0    2    7    3  0     3  3  0  0  0        3                                          
       7  ROOTTOP    C    25    0    2   10   26    3  3     3  3  3  3  3        3                                          
       8  LVANE2    IB     0    3    0    9   10    3  0  0  3  3  0  0  0        0                                          
       9  LVANE1    IB     4    3    0    8   10    3  0  0  3  3  0  0  0        0                                          
      10  VANELFT    C     0    5    9   19   26    3  0  0  3  3  0  0  0        3                                          
      11  RVANE2    IB     8    3    0   12   13    3  0  0  3  3  0  0  0        0                                          
      12  RVANE1    IB     9    3    0   11   13    3  0  0  3  3  0  0  0        0  3     3                                 
      13  VANERGT    C    10    5   12   26   27    3  0  0  3  3  0  0  0        3  3     3                                 
      14  BVANE2    IB    11    3    0   15   16    3  0  0  3  3  0  0  0        0                                          
      15  BVANE1    IB    12    3    0   14   16    3  0  0  3  3  0  0  0        0                                          
      16  VANEBOT    C    13    5   15   25   26    3  0  0  3  3  0  0  0        3                                          
      17  LROOT2    IB     0    2    0   18   19    3  0     3  3  0  0  0        0                                          
      18  LROOT1    IB     6    2    0   17   19    3  0     3  3  0  0  0        0                                          
      19  ROOTLFT    C     0    7   18   16   26    3  0     3  3  0  0  0        3                                          
      20  RROOT2    IB    17    2    0   21   22    3  0     3  3  0  0  0        0                                          
      21  RROOT1    IB    18    2    0   20   22    3  0     3  3  0  0  0        0                                          
      22  ROOTRGT    C    19    7   21    5   26    3  0     3  3  0  0  0        3                                          
      23  BROOT2    IB    20    2    0   24   25    3  0     3  3  0  0  0        0                                          
      24  BROOT1    IB    21    2    0   23   25    3  0     3  3  0  0  0        0                                          
      25  ROOTBOT    C    22    7   24   22   26    3  0     3  3  0  0  0        3                                          
      26  RING       C     0    0    5   13   27    3  3  3  3  3  4  3  3        3                                          
      27  BLADES     C     0    0   26    1   28    3  3  3  3  3  4  3  3        3  3     3                                 
      28  WINDMIL    C     0    0    1    0   29    3  3  3  3  3  4  3  3  3  3  4  3     3           3                     
      29  SMALLMIL   R     0    0   28    0    0    3  3  3  3  3  4  4  4           3     3                                 


                                                   SIZE OF ITEM IS GIVEN IN POWERS OF TEN   (0 INDICATES DATA IS STORED IN PRIMARY)
0*** UNUSED SPACE ON SOF =   663552 WORDS.
                      OR =      648 BLOCKS.
                      OR =       69 PERCENT.
0*** HIGHEST BLOCK USED  =      278
0*** SYSTEM WARNING MESSAGE 2363, SSG2B FORCED MPYAD COMPATIBILITY OF MATRIX ON  103, FROM (   38,    1), TO (   38,    3)
0*** USER INFORMATION MESSAGE 6321, SUBSTRUCTURE PHASE 3 RECOVER FOR FINAL SOLUTION STRUCTURE SMALLMIL
                                    AND BASIC SUBSTRUCTURE RVANE1  
1     WINDMILL PANEL SECTIONS FOR AUTOMATED MULTI-STAGE SUBSTRUCTUR         /    95 SUN SOLARIS NASTRAN    / MAY 17, 95 / PAGE    20
      NASTRAN DEMONSTRATION PROBLEM NO. D02-02-5A                                                                                   
0     ROTATIOAL FORCES ABOUT CENTER OF OVERALL STRUCTURE                                                     SUBCASE 1              
 
                                             D I S P L A C E M E N T   V E C T O R
 
      POINT ID.   TYPE          T1             T2             T3             R1             R2             R3
             1      G      8.268573E-14  -6.884929E-07   0.0            0.0            0.0            0.0                           
             2      G      4.723215E-09  -6.866109E-07   0.0            0.0            0.0            0.0                           
             3      G      6.438692E-14  -6.531354E-07   0.0            0.0            0.0            0.0                           
             4      G      9.446658E-09  -6.507344E-07   0.0            0.0            0.0            0.0                           
             5      G      4.847075E-14  -5.599794E-07   0.0            0.0            0.0            0.0                           
             6      G      1.713453E-08  -5.559373E-07   0.0            0.0            0.0            0.0                           
             7      G      3.515526E-14  -4.225010E-07   0.0            0.0            0.0            0.0                           
             8      G      2.011189E-08  -4.091746E-07   0.0            0.0            0.0            0.0                           
             9      G      0.0            0.0            0.0            0.0            0.0            0.0                           
1     WINDMILL PANEL SECTIONS FOR AUTOMATED MULTI-STAGE SUBSTRUCTUR         /    95 SUN SOLARIS NASTRAN    / MAY 17, 95 / PAGE    21
      NASTRAN DEMONSTRATION PROBLEM NO. D02-02-5A                                                                                   
0     EXTENSION OF RIGHT PANEL AND COMPRESSION OF BOTTOM PANEL                                               SUBCASE 2              
 
                                             D I S P L A C E M E N T   V E C T O R
 
      POINT ID.   TYPE          T1             T2             T3             R1             R2             R3
             1      G      2.191551E-05  -3.859980E-04   0.0            0.0            0.0            0.0                           
             2      G      3.438945E-05  -3.874633E-04   0.0            0.0            0.0            0.0                           
             3      G      1.968054E-05  -3.110513E-04   0.0            0.0            0.0            0.0                           
             4      G      3.210570E-05  -3.124478E-04   0.0            0.0            0.0            0.0                           
             5      G      1.744547E-05  -2.364426E-04   0.0            0.0            0.0            0.0                           
             6      G      2.953589E-05  -2.372383E-04   0.0            0.0            0.0            0.0                           
             7      G      1.520824E-05  -1.638057E-04   0.0            0.0            0.0            0.0                           
             8      G      2.593191E-05  -1.606965E-04   0.0            0.0            0.0            0.0                           
             9      G      0.0            0.0            0.0            0.0            0.0            0.0                           
1     WINDMILL PANEL SECTIONS FOR AUTOMATED MULTI-STAGE SUBSTRUCTUR         /    95 SUN SOLARIS NASTRAN    / MAY 17, 95 / PAGE    22
      NASTRAN DEMONSTRATION PROBLEM NO. D02-02-5A                                                                                   
0     CHECK ON RELEASE FEATURE AT GRID POINT 5                                                               SUBCASE 3              
 
                                             D I S P L A C E M E N T   V E C T O R
 
      POINT ID.   TYPE          T1             T2             T3             R1             R2             R3
             1      G     -4.266003E-08  -4.426530E-09   0.0            0.0            0.0            0.0                           
             2      G     -4.266219E-08   1.476260E-10   0.0            0.0            0.0            0.0                           
             3      G     -3.580445E-08  -4.431032E-09   0.0            0.0            0.0            0.0                           
             4      G     -3.580771E-08   1.501015E-10   0.0            0.0            0.0            0.0                           
             5      G     -2.894873E-08  -4.454039E-09   0.0            0.0            0.0            0.0                           
             6      G     -2.895208E-08   1.707467E-10   0.0            0.0            0.0            0.0                           
             7      G     -2.208946E-08  -4.518998E-09   0.0            0.0            0.0            0.0                           
             8      G     -2.199622E-08   2.719895E-10   0.0            0.0            0.0            0.0                           
             9      G      0.0            0.0            0.0            0.0            0.0            0.0                           
1     WINDMILL PANEL SECTIONS FOR AUTOMATED MULTI-STAGE SUBSTRUCTUR         /    95 SUN SOLARIS NASTRAN    / MAY 17, 95 / PAGE    23
      NASTRAN DEMONSTRATION PROBLEM NO. D02-02-5A                                                                                   
0     ROTATIOAL FORCES ABOUT CENTER OF OVERALL STRUCTURE                                                     SUBCASE 1              
 
                     S T R E S S E S   I N   Q U A D R I L A T E R A L   M E M B R A N E S      ( C Q D M E M )
  ELEMENT           STRESSES IN ELEMENT COORD SYSTEM            PRINCIPAL           PRINCIPAL STRESSES            MAX
    ID.           NORMAL-X       NORMAL-Y       SHEAR-XY      STRESS ANGLE         MAJOR          MINOR          SHEAR
        1       -2.450548E-03   4.687670E-02  -4.536510E-04      -89.4731       4.688087E-02  -2.454720E-03   2.466780E-02          
        2        5.060732E-03   1.265672E-01  -5.271435E-04      -89.7514       1.265695E-01   5.058449E-03   6.075554E-02          
        3        1.080233E-02   1.921947E-01  -6.153435E-03      -88.0593       1.924032E-01   1.059382E-02   9.090468E-02          
1     WINDMILL PANEL SECTIONS FOR AUTOMATED MULTI-STAGE SUBSTRUCTUR         /    95 SUN SOLARIS NASTRAN    / MAY 17, 95 / PAGE    24
      NASTRAN DEMONSTRATION PROBLEM NO. D02-02-5A                                                                                   
0     EXTENSION OF RIGHT PANEL AND COMPRESSION OF BOTTOM PANEL                                               SUBCASE 2              
 
                     S T R E S S E S   I N   Q U A D R I L A T E R A L   M E M B R A N E S      ( C Q D M E M )
  ELEMENT           STRESSES IN ELEMENT COORD SYSTEM            PRINCIPAL           PRINCIPAL STRESSES            MAX
    ID.           NORMAL-X       NORMAL-Y       SHEAR-XY      STRESS ANGLE         MAJOR          MINOR          SHEAR
        1        1.008911E-01   1.000000E+02  -6.025696E-02      -89.9654       1.000001E+02   1.008530E-01   4.994961E+01          
        2        4.843979E-01   9.999995E+01  -4.044342E-01      -89.7672       1.000016E+02   4.827538E-01   4.975942E+01          
        3        2.185631E+00   9.999889E+01  -2.483063E+00      -88.5468       1.000619E+02   2.122639E+00   4.896962E+01          
1     WINDMILL PANEL SECTIONS FOR AUTOMATED MULTI-STAGE SUBSTRUCTUR         /    95 SUN SOLARIS NASTRAN    / MAY 17, 95 / PAGE    25
      NASTRAN DEMONSTRATION PROBLEM NO. D02-02-5A                                                                                   
0     CHECK ON RELEASE FEATURE AT GRID POINT 5                                                               SUBCASE 3              
 
                     S T R E S S E S   I N   Q U A D R I L A T E R A L   M E M B R A N E S      ( C Q D M E M )
  ELEMENT           STRESSES IN ELEMENT COORD SYSTEM            PRINCIPAL           PRINCIPAL STRESSES            MAX
    ID.           NORMAL-X       NORMAL-Y       SHEAR-XY      STRESS ANGLE         MAJOR          MINOR          SHEAR
        1        5.416572E-06   3.725290E-09  -6.101094E-06      -33.0391       9.384583E-06  -3.964286E-06   6.674435E-06          
        2        6.623566E-06   8.009374E-08  -2.600532E-05      -41.4146       2.956215E-05  -2.285849E-05   2.621032E-05          
        3       -8.944236E-05   1.829118E-06  -8.227490E-05      -59.5080       5.027727E-05  -1.378905E-04   9.408389E-05          




                                        * * * END OF JOB * * *
1
 JOB TITLE =  WINDMILL PANEL SECTIONS FOR AUTOMATED MULTI-STAGE SUBSTRUCTUR      
 DATE:  5/17/95
 END TIME: 15:20:19
 TOTAL WALL CLOCK TIME      2 SEC.
 
