





                                  ****
                                *      *
                               *        *
                               *  N A S T R A N
                               *        *
                                *      *
                                  ****


                             SUN COMPUTER SYSTEMS    
                                SOLARIS VERSION

                          SYSTEM RELEASE -  1995 ED.

                                DISTRIBUTED BY

         COMPUTER SOFTWARE MANAGEMENT AND INFORMATION CENTER (COSMIC)
                 UNIVERSITY OF GEORGIA, ATHENS, GEORGIA 30602
                 PHONE: (706)542-3265      FAX: (706)542-4807
1                                                                           /    95 SUN SOLARIS NASTRAN    / MAY 17, 95 / PAGE     2
                                                                                                                                    
0                                                                                                                                   
                                                                                                         
                                                                                                         
                         INSTALLATION CENTER USER INFORMATION GIVEN IN THIS SECTION                      
                                                                                                         
                                     *********************************************                       
                                     *                                           *                       
                                     *  PLEASE READ THE COMMENT IN DEMO PROBLEM  *                       
                                     *  D01002A ABOUT SYSTEM TIMING CONSTANTS    *                       
                                     *                                           *                       
                                     *********************************************                       
                                                                                                         
                         ===X=    TOP OF PAGE REQUEST IF 'X' IS REPLACED BY '='                          
                                                                                                         
1                                                                           /    95 SUN SOLARIS NASTRAN    / MAY 17, 95 / PAGE     3
                                                                                                                                    
0                                                                                                                                   
0*** USER INFORMATION MESSAGE 225, GINO TIME CONSTANTS ARE BEING COMPUTED
     (SEE NASINFO FILE FOR ELIMINATION OF THESE COMPUTATIONS)
1                                                                           /    95 SUN SOLARIS NASTRAN    / MAY 17, 95 / PAGE     4
                                                                                                                                    
0        N A S T R A N    E X E C U T I V E    C O N T R O L    D E C K    E C H O                                                  
0                                                                                                                                   
                                                                                                                                    
                                                                                                                                    
     ID    D02011A,NASTRAN                                                           
     TIME  5                                                                         
     APP   DISPLACEMENT                                                              
     SOL   2,1                                                                       
     CEND                                                                            


0*** USER INFORMATION MESSAGE, TURN DIAG 48 ON FOR NASTRAN RELEASE NEWS, DIAG DEFINITION, NEW DMAP
         MODULES AND NEW BULKDATA CARDS INFORMATION
1     INERTIA RELIEF ANALYSIS OF A CIRCULAR RING                            /    95 SUN SOLARIS NASTRAN    / MAY 17, 95 / PAGE     5
      NASTRAN DEMONSTRATION PROBLEM NO. D02-01-1A                                                                                   
0     CONCENTRATED AND CENTRIFUGAL LOADS                                                                                            
0                                        C A S E    C O N T R O L   D E C K   E C H O                                               
                 CARD                                                                                                               
                 COUNT                                                                                                              
                  1      TITLE    = INERTIA RELIEF ANALYSIS OF A CIRCULAR RING                           
                  2      LABEL    = CONCENTRATED AND CENTRIFUGAL LOADS                                   
                  3      SUBTITLE = NASTRAN DEMONSTRATION PROBLEM NO. D02-01-1A                          
                  4          LOAD = 3                                                                    
                  5          OUTPUT                                                                      
                  6               DISP = ALL                                                             
                  7              OLOAD = ALL                                                             
                  8           SPCFORCE = ALL                                                             
                  9           STRESSES = ALL                                                             
                 10              SET 1 = 1,6,7,12,13,18,19,24                                            
                 11            ELFORCE = 1                                                               
                 12      BEGIN BULK                                                                      


                        (NO. OF UNSORTED BULK DATA CARDS READ =    86, INCLUDING   0 COMMENT CARDS)
0*** USER INFORMATION MESSAGE 207, BULK DATA DECK IS NOT SORTED. NASTRAN WILL RE-ORDER THE INPUT DECK.
1     INERTIA RELIEF ANALYSIS OF A CIRCULAR RING                            /    95 SUN SOLARIS NASTRAN    / MAY 17, 95 / PAGE     6
      NASTRAN DEMONSTRATION PROBLEM NO. D02-01-1A                                                                                   
0     CONCENTRATED AND CENTRIFUGAL LOADS                                                                                            
0                                                 S O R T E D   B U L K    D A T A    E C H O                                       
                     CARD                                                                                                           
                     COUNT        ---1--- +++2+++ ---3--- +++4+++ ---5--- +++6+++ ---7--- +++8+++ ---9--- +++10+++                  
                    1-        BAROR           5                       1.0     .0      .0      1               
                    2-        CBAR    1               1       2                               1       +B1     
                    3-        +B1                     -1.0    .0      .0      -1.0    .0      .0              
                    4-        CBAR    2               2       3                               1       +B2     
                    5-        +B2                     -1.0    .0      .0      -1.0    .0      .0              
                    6-        CBAR    3               3       4                               1       +B3     
                    7-        +B3                     -1.0    .0      .0      -1.0    .0      .0              
                    8-        CBAR    4               4       5                               1       +B4     
                    9-        +B4                     -1.0    .0      .0      -1.0    .0      .0              
                   10-        CBAR    5               5       6                               1       +B5     
                   11-        +B5                     -1.0    .0      .0      -1.0    .0      .0              
                   12-        CBAR    6               6       7                               1       +B6     
                   13-        +B6                     -1.0    .0      .0      -1.0    .0      .0              
                   14-        CBAR    7               7       8                               1       +B7     
                   15-        +B7                     -1.0    .0      .0      -1.0    .0      .0              
                   16-        CBAR    8               8       9                               1       +B8     
                   17-        +B8                     -1.0    .0      .0      -1.0    .0      .0              
                   18-        CBAR    9               9       10                              1       +B9     
                   19-        +B9                     -1.0    .0      .0      -1.0    .0      .0              
                   20-        CBAR    10              10      11                              1       +B10    
                   21-        +B10                    -1.0    .0      .0      -1.0    .0      .0              
                   22-        CBAR    11              11      12                              1       +B11    
                   23-        +B11                    -1.0    .0      .0      -1.0    .0      .0              
                   24-        CBAR    12              12      13                              1       +B12    
                   25-        +B12                    -1.0    .0      .0      -1.0    .0      .0              
                   26-        CBAR    13              13      14                              1       +B13    
                   27-        +B13                    -1.0    .0      .0      -1.0    .0      .0              
                   28-        CBAR    14              14      15                              1       +B14    
                   29-        +B14                    -1.0    .0      .0      -1.0    .0      .0              
                   30-        CBAR    15              15      16                              1       +B15    
                   31-        +B15                    -1.0    .0      .0      -1.0    .0      .0              
                   32-        CBAR    16              16      17                              1       +B16    
                   33-        +B16                    -1.0    .0      .0      -1.0    .0      .0              
                   34-        CBAR    17              17      18                              1       +B17    
                   35-        +B17                    -1.0    .0      .0      -1.0    .0      .0              
                   36-        CBAR    18              18      19                              1       +B18    
                   37-        +B18                    -1.0    .0      .0      -1.0    .0      .0              
                   38-        CBAR    19              19      20                              1       +B19    
                   39-        +B19                    -1.0    .0      .0      -1.0    .0      .0              
                   40-        CBAR    20              20      21                              1       +B20    
                   41-        +B20                    -1.0    .0      .0      -1.0    .0      .0              
                   42-        CBAR    21              21      22                              1       +B21    
                   43-        +B21                    -1.0    .0      .0      -1.0    .0      .0              
                   44-        CBAR    22              22      23                              1       +B22    
                   45-        +B22                    -1.0    .0      .0      -1.0    .0      .0              
                   46-        CBAR    23              23      24                              1       +B23    
                   47-        +B23                    -1.0    .0      .0      -1.0    .0      .0              
1     INERTIA RELIEF ANALYSIS OF A CIRCULAR RING                            /    95 SUN SOLARIS NASTRAN    / MAY 17, 95 / PAGE     7
      NASTRAN DEMONSTRATION PROBLEM NO. D02-01-1A                                                                                   

      CONCENTRATED AND CENTRIFUGAL LOADS                                                                                            

                                                  S O R T E D   B U L K    D A T A    E C H O                                       
                     CARD                                                                                                           
                     COUNT        ---1--- +++2+++ ---3--- +++4+++ ---5--- +++6+++ ---7--- +++8+++ ---9--- +++10+++                  
                   48-        CBAR    24              24      1                               1       +B24    
                   49-        +B24                    -1.0    .0      .0      -1.0    .0      .0              
                   50-        CORD2C  2       0       .0      10.0    .0      .0      10.0    1.0     CCORD   
                   51-        +CORD   .0      9.0     .0                                                      
                   52-        FORCE   1       13      2       100.0   1.0     .0      .0                      
                   53-        GRDSET          2                               2       345                     
                   54-        GRID    1               11.0    .0      .0                                      
                   55-        GRID    2               11.0    15.0    .0                                      
                   56-        GRID    3               11.0    30.0    .0                                      
                   57-        GRID    4               11.0    45.0    .0                                      
                   58-        GRID    5               11.0    60.0    .0                                      
                   59-        GRID    6               11.0    75.0    .0                                      
                   60-        GRID    7               11.0    90.0    .0                                      
                   61-        GRID    8               11.0    105.0   .0                                      
                   62-        GRID    9               11.0    120.0   .0                                      
                   63-        GRID    10              11.0    135.0   .0                                      
                   64-        GRID    11              11.0    150.0   .0                                      
                   65-        GRID    12              11.0    165.0   .0                                      
                   66-        GRID    13              11.0    180.    .0                                      
                   67-        GRID    14              11.0    195.    .0                                      
                   68-        GRID    15              11.0    210.    .0                                      
                   69-        GRID    16              11.0    225.    .0                                      
                   70-        GRID    17              11.0    240.    .0                                      
                   71-        GRID    18              11.0    255.    .0                                      
                   72-        GRID    19              11.0    270.    .0                                      
                   73-        GRID    20              11.0    285.    .0                                      
                   74-        GRID    21              11.0    300.    .0                                      
                   75-        GRID    22              11.0    315.    .0                                      
                   76-        GRID    23              11.0    330.    .0                                      
                   77-        GRID    24              11.0    345.    .0                                      
                   78-        GRID    25      2       .0      .0      .0              123456                  
                   79-        LOAD    3       1.0     1.0     1       1.0     2                               
                   80-        MAT1    1       1000.0  400.0           .5                              +MAT1   
                   81-        +MAT1   100.    200.    300.                                                    
                   82-        PARAM   GRDPNT  19                                                              
                   83-        PBAR    5       1       1000.0  10.     10.                             +P5     
                   84-        +P5     1.0     1.0     -1.0    -1.0                                            
                   85-        RFORCE  2       25      2       .159155 .0      .0      1.0                     
                   86-        SUPORT  1       2       1       1       13      2                               
                              ENDDATA
1     INERTIA RELIEF ANALYSIS OF A CIRCULAR RING                            /    95 SUN SOLARIS NASTRAN    / MAY 17, 95 / PAGE     8
      NASTRAN DEMONSTRATION PROBLEM NO. D02-01-1A                                                                                   
0     CONCENTRATED AND CENTRIFUGAL LOADS                                                                                            
0*** USER INFORMATION MESSAGES FROM RESEQUENCING PROCESSOR - BANDIT     (CRI= 1,  MTH= 3,  MPC= 0,  DEP=-1,  PCH=-1)

                               BEFORE RESEQUENCING - - -
                                        BANDWIDTH           24
                                        PROFILE             69
                                        MAX WAVEFRONT        3
                                        AVG WAVEFRONT    2.875
                                        RMS WAVEFRONT    2.908
                                        RMS BANDWIDTH    5.264

                               AFTER RESEQUENCING BY GIBBS-POOLE-STOCKMEYER (GPS) ALGORITHM - - -
                                        BANDWIDTH            3
                                        PROFILE             69
                                        MAX WAVEFRONT        3
                                        AVG WAVEFRONT    2.875
                                        RMS WAVEFRONT    2.908
                                        RMS BANDWIDTH    2.908


                                                     *** BANDIT SUMMARY ***

                                                                        BEFORE     AFTER
                                        BANDWIDTH (B)                       24        24
                                        PROFILE (P)                         69        69
                                        MAXIMUM WAVEFRONT (C-MAX)            3         3
                                        AVERAGE WAVEFRONT (C-AVG)        2.875     2.875
                                        RMS WAVEFRONT (C-RMS)            2.908     2.908
                                        RMS BANDWITCH (B-RMS)            5.264     5.264
                                        NUMBER OF GRID POINTS (N)                     25
                                        NUMBER OF ELEMENTS (NON-RIGID)                24
                                        NUMBER OF RIGID ELEMENTS PROCESSED*            0
                                        NUMBER OF MPC  EQUATIONS PROCESSED*            0
                                        NUMBER OF COMPONENTS                           1
                                        MAXIMUM NODAL DEGREE                           2
                                        MINIMUM NODAL DEGREE                           2
                                        NUMBER OF UNIQUE EDGES                        24
                                        MATRIX DENSITY, PERCENT                   12.500
                                        NUMBER OF POINTS OF ZERO DEGREE                0
                                        BANDIT OPEN CORE                         1998969
                                        CRITERION*                         RMS WAVEFRONT
                                        METHOD USED*                                 GPS

                               (* THESE DEFAULT OPTIONS CAN BE OVERRIDDEN BY THE NASTRAN CARD)


                               BANDIT FINDS GRID POINT RE-SEQUENCING NOT NECESSARY
0         **NO ERRORS FOUND - EXECUTE NASTRAN PROGRAM**
0*** USER WARNING MESSAGE 2015, EITHER NO ELEMENTS CONNECTED TO EXTERNAL GRID POINT       25
     OR IT IS CONNECTED TO A RIGID ELEMENT OR A GENERAL ELEMENT.
0*** USER INFORMATION MESSAGE 238, TURN DIAG 38 ON FOR ADDITIONAL ELEMENT PROCESSING INFORMATION

0*** USER INFORMATION MESSAGE 3113,
     EMG MODULE PROCESSING DOUBLE PRECISION BAR      ELEMENTS (ELEMENT TYPE  34) STARTING WITH ID        1
1     INERTIA RELIEF ANALYSIS OF A CIRCULAR RING                            /    95 SUN SOLARIS NASTRAN    / MAY 17, 95 / PAGE     9
      NASTRAN DEMONSTRATION PROBLEM NO. D02-01-1A                                                                                   
0     CONCENTRATED AND CENTRIFUGAL LOADS                                                                                            
 
 
                           O U T P U T   F R O M   G R I D   P O I N T   W E I G H T   G E N E R A T O R
0                                                     REFERENCE POINT =       19
 
 
                                     MO - RIGID BODY MASS MATRIX IN BASIC COORDINATE SYSTEM
                ***                                                                                             ***
                *  3.13262851D+04 -5.68434189D-14  0.00000000D+00  0.00000000D+00  0.00000000D+00  1.47353916D-03 *
                *  5.68434189D-14  3.13262851D+04  0.00000000D+00  0.00000000D+00  0.00000000D+00  3.44589147D+05 *
                *  0.00000000D+00  0.00000000D+00  3.13262858D+04 -5.75844994D-04 -3.44589146D+05  0.00000000D+00 *
                *  0.00000000D+00  0.00000000D+00 -5.75845012D-04  1.56631423D+06  1.42182534D-03  0.00000000D+00 *
                *  0.00000000D+00  0.00000000D+00 -3.44589146D+05  1.42182531D-03  5.35679491D+06  0.00000000D+00 *
                *  1.47353917D-03  3.44589147D+05  0.00000000D+00  0.00000000D+00  0.00000000D+00  6.92310919D+06 *
                ***                                                                                             ***
                                        S - TRANSFORMATION MATRIX FOR SCALAR MASS PARTITION
                                        ***                                             ***
                                        *  1.00000000D+00  0.00000000D+00  0.00000000D+00 *
                                        *  0.00000000D+00  1.00000000D+00  0.00000000D+00 *
                                        *  0.00000000D+00  0.00000000D+00  1.00000000D+00 *
                                        ***                                             ***
                         DIRECTION
                    MASS AXIS SYSTEM (S)       MASS                 X-C.G.           Y-C.G.           Z-C.G.
                            X            3.132628513D+04      0.000000000D+00 -4.703842661D-08  0.000000000D+00
                            Y            3.132628513D+04      1.100000035D+01  0.000000000D+00  0.000000000D+00
                            Z            3.132628582D+04      1.100000007D+01 -1.838216625D-08  0.000000000D+00

                                                 I(S) - INERTIAS RELATIVE TO C.G. 
                                      ***                                                 ***
                                      *  1.566314229D+06  4.912469627D-03  0.000000000D+00  *
                                      *  4.912469627D-03  1.566314277D+06  0.000000000D+00  *
                                      *  0.000000000D+00  0.000000000D+00  3.132628446D+06  *
                                      ***                                                 ***
                                                      I(Q) - PRINCIPAL INERTIAS
                                      ***                                                 ***
                                      *  1.566314229D+06                                    *
                                      *                   1.566314277D+06                   *
                                      *                                    3.132628446D+06  *
                                      ***                                                 ***
                                            Q - TRANSFORMATION MATRIX - I(Q) = QT*I(S)*Q
                                      ***                                                 ***
                                      *  1.000000000D+00  0.000000000D+00  0.000000000D+00  *
                                      *  0.000000000D+00  1.000000000D+00  0.000000000D+00  *
                                      *  0.000000000D+00  0.000000000D+00  1.000000000D+00  *
                                      ***                                                 ***
1     INERTIA RELIEF ANALYSIS OF A CIRCULAR RING                            /    95 SUN SOLARIS NASTRAN    / MAY 17, 95 / PAGE    10
      NASTRAN DEMONSTRATION PROBLEM NO. D02-01-1A                                                                                   

      CONCENTRATED AND CENTRIFUGAL LOADS                                                                                            




0*** USER INFORMATION MESSAGE 3035
     FOR SUBCASE NUMBER     0, EPSILON SUB E =   6.9275717E-16
0*** USER INFORMATION MESSAGE 3035
     FOR SUBCASE NUMBER     1, EPSILON SUB E =   1.2960218E-15
1     INERTIA RELIEF ANALYSIS OF A CIRCULAR RING                            /    95 SUN SOLARIS NASTRAN    / MAY 17, 95 / PAGE    11
      NASTRAN DEMONSTRATION PROBLEM NO. D02-01-1A                                                                                   
0     CONCENTRATED AND CENTRIFUGAL LOADS                                                                                            
 
                                             D I S P L A C E M E N T   V E C T O R
 
      POINT ID.   TYPE          T1             T2             T3             R1             R2             R3
             1      G      0.0            0.0            0.0            0.0            0.0            1.059570E-07                  
             2      G     -9.235611E-03   1.527942E-01   0.0            0.0            0.0            1.994616E-02                  
             3      G     -3.096246E-02   3.055936E-01   0.0            0.0            0.0            3.581405E-02                  
             4      G     -4.850188E-02   4.560749E-01   0.0            0.0            0.0            4.418124E-02                  
             5      G     -3.809213E-02   5.978281E-01   0.0            0.0            0.0            4.286394E-02                  
             6      G      2.567450E-02   7.196550E-01   0.0            0.0            0.0            3.136594E-02                  
             7      G      1.633540E-01   8.062631E-01   0.0            0.0            0.0            1.115041E-02                  
             8      G      3.840694E-01   8.404521E-01   0.0            0.0            0.0           -1.431701E-02                  
             9      G      6.799029E-01   8.066742E-01   0.0            0.0            0.0           -3.975694E-02                  
            10      G      1.022223E+00   6.955946E-01   0.0            0.0            0.0           -5.848686E-02                  
            11      G      1.360743E+00   5.090740E-01   0.0            0.0            0.0           -6.301698E-02                  
            12      G      1.625783E+00   2.648372E-01   0.0            0.0            0.0           -4.578657E-02                  
            13      G      1.733905E+00   0.0            0.0            0.0            0.0           -2.284842E-06                  
            14      G      1.625796E+00  -2.648381E-01   0.0            0.0            0.0            4.578251E-02                  
            15      G      1.360763E+00  -5.090763E-01   0.0            0.0            0.0            6.301593E-02                  
            16      G      1.022240E+00  -6.955984E-01   0.0            0.0            0.0            5.848927E-02                  
            17      G      6.799079E-01  -8.066780E-01   0.0            0.0            0.0            3.976232E-02                  
            18      G      3.840587E-01  -8.404579E-01   0.0            0.0            0.0            1.431959E-02                  
            19      G      1.633433E-01  -8.062711E-01   0.0            0.0            0.0           -1.115287E-02                  
            20      G      2.566912E-02  -7.196607E-01   0.0            0.0            0.0           -3.136814E-02                  
            21      G     -3.809446E-02  -5.978311E-01   0.0            0.0            0.0           -4.286440E-02                  
            22      G     -4.850535E-02  -4.560763E-01   0.0            0.0            0.0           -4.418079E-02                  
            23      G     -3.096606E-02  -3.055954E-01   0.0            0.0            0.0           -3.581496E-02                  
            24      G     -9.236000E-03  -1.527956E-01   0.0            0.0            0.0           -1.994708E-02                  
            25      G      0.0            0.0            0.0            0.0            0.0            0.0                           
1     INERTIA RELIEF ANALYSIS OF A CIRCULAR RING                            /    95 SUN SOLARIS NASTRAN    / MAY 17, 95 / PAGE    12
      NASTRAN DEMONSTRATION PROBLEM NO. D02-01-1A                                                                                   
0     CONCENTRATED AND CENTRIFUGAL LOADS                                                                                            
 
                                                     L O A D   V E C T O R
 
      POINT ID.   TYPE          T1             T2             T3             R1             R2             R3
             1      G      1.305263E+04   0.0            0.0            0.0            0.0            0.0                           
             2      G      1.305263E+04  -3.111988E-04   0.0            0.0            0.0            0.0                           
             3      G      1.305263E+04  -6.223976E-04   0.0            0.0            0.0            0.0                           
             4      G      1.305263E+04   0.0            0.0            0.0            0.0            0.0                           
             5      G      1.305263E+04   6.223976E-04   0.0            0.0            0.0            0.0                           
             6      G      1.305263E+04   3.111988E-04   0.0            0.0            0.0            0.0                           
             7      G      1.305263E+04   0.0            0.0            0.0            0.0            0.0                           
             8      G      1.305263E+04  -3.111988E-04   0.0            0.0            0.0            0.0                           
             9      G      1.305263E+04  -6.223977E-04   0.0            0.0            0.0            0.0                           
            10      G      1.305263E+04   0.0            0.0            0.0            0.0            0.0                           
            11      G      1.305262E+04   6.223974E-04   0.0            0.0            0.0            0.0                           
            12      G      1.305263E+04   0.0            0.0            0.0            0.0            0.0                           
            13      G      1.315263E+04   0.0            0.0            0.0            0.0            0.0                           
            14      G      1.305262E+04  -3.111987E-04   0.0            0.0            0.0            0.0                           
            15      G      1.305262E+04  -6.223974E-04   0.0            0.0            0.0            0.0                           
            16      G      1.305263E+04   0.0            0.0            0.0            0.0            0.0                           
            17      G      1.305263E+04   0.0            0.0            0.0            0.0            0.0                           
            18      G      1.305263E+04   3.111988E-04   0.0            0.0            0.0            0.0                           
            19      G      1.305262E+04   0.0            0.0            0.0            0.0            0.0                           
            20      G      1.305263E+04  -3.111988E-04   0.0            0.0            0.0            0.0                           
            21      G      1.305262E+04   0.0            0.0            0.0            0.0            0.0                           
            22      G      1.305262E+04   0.0            0.0            0.0            0.0            0.0                           
            23      G      1.305263E+04   6.223975E-04   0.0            0.0            0.0            0.0                           
            24      G      1.305263E+04   3.111989E-04   0.0            0.0            0.0            0.0                           
1     INERTIA RELIEF ANALYSIS OF A CIRCULAR RING                            /    95 SUN SOLARIS NASTRAN    / MAY 17, 95 / PAGE    13
      NASTRAN DEMONSTRATION PROBLEM NO. D02-01-1A                                                                                   
0     CONCENTRATED AND CENTRIFUGAL LOADS                                                                                            
 
                               F O R C E S   O F   S I N G L E - P O I N T   C O N S T R A I N T
 
      POINT ID.   TYPE          T1             T2             T3             R1             R2             R3
             1      G      9.999944E+01  -3.029712E-03   0.0            0.0            0.0            0.0                           
            13      G      0.0            3.331374E-03   0.0            0.0            0.0            0.0                           
1     INERTIA RELIEF ANALYSIS OF A CIRCULAR RING                            /    95 SUN SOLARIS NASTRAN    / MAY 17, 95 / PAGE    14
      NASTRAN DEMONSTRATION PROBLEM NO. D02-01-1A                                                                                   
0     CONCENTRATED AND CENTRIFUGAL LOADS                                                                                            
 
                                 F O R C E S   I N   B A R   E L E M E N T S         ( C B A R )
0    ELEMENT         BEND-MOMENT END-A            BEND-MOMENT END-B                - SHEAR -               AXIAL
       ID.         PLANE 1       PLANE 2        PLANE 1       PLANE 2        PLANE 1       PLANE 2         FORCE         TORQUE
            1    -8.047074E+01  0.0           -7.234190E+01  0.0           -3.113871E+00  0.0            4.999233E+04   0.0         
            6     6.312048E+01  0.0            9.175675E+01  0.0           -1.096954E+01  0.0            5.002170E+04   0.0         
            7     9.175635E+01  0.0            1.033568E+02  0.0           -4.443726E+00  0.0            5.002794E+04   0.0         
           12    -1.147656E+02  0.0           -2.360047E+02  0.0            4.644238E+01  0.0            5.001426E+04   0.0         
           13    -2.360010E+02  0.0           -1.147697E+02  0.0           -4.643945E+01  0.0            5.001426E+04   0.0         
           18     1.033936E+02  0.0            9.175837E+01  0.0            4.457031E+00  0.0            5.002794E+04   0.0         
           19     9.175867E+01  0.0            6.311644E+01  0.0            1.097183E+01  0.0            5.002173E+04   0.0         
           24    -7.235044E+01  0.0           -8.047080E+01  0.0            3.110624E+00  0.0            4.999234E+04   0.0         
1     INERTIA RELIEF ANALYSIS OF A CIRCULAR RING                            /    95 SUN SOLARIS NASTRAN    / MAY 17, 95 / PAGE    15
      NASTRAN DEMONSTRATION PROBLEM NO. D02-01-1A                                                                                   
0     CONCENTRATED AND CENTRIFUGAL LOADS                                                                                            
 
                                 S T R E S S E S   I N   B A R   E L E M E N T S          ( C B A R )
  ELEMENT        SA1            SA2            SA3            SA4           AXIAL          SA-MAX         SA-MIN     M.S.-T
    ID.          SB1            SB2            SB3            SB4           STRESS         SB-MAX         SB-MIN     M.S.-C
0      1     8.047074E+00  -8.047074E+00   0.0            0.0            4.999233E+01   5.803940E+01   4.194526E+01  7.2E-01        
             7.234190E+00  -7.234190E+00   0.0            0.0                           5.722652E+01   4.275814E+01                 
0      2     7.234229E+00  -7.234229E+00   0.0            0.0            4.999500E+01   5.722923E+01   4.276077E+01  7.5E-01        
             4.922631E+00  -4.922631E+00   0.0            0.0                           5.491763E+01   4.507237E+01                 
0      3     4.922711E+00  -4.922711E+00   0.0            0.0            4.999998E+01   5.492269E+01   4.507727E+01  8.2E-01        
             1.487651E+00  -1.487651E+00   0.0            0.0                           5.148763E+01   4.851233E+01                 
0      4     1.487640E+00  -1.487640E+00   0.0            0.0            5.000672E+01   5.149436E+01   4.851908E+01  9.0E-01        
            -2.496883E+00   2.496883E+00   0.0            0.0                           5.250360E+01   4.750983E+01                 
0      5    -2.496933E+00   2.496933E+00   0.0            0.0            5.001425E+01   5.251118E+01   4.751732E+01  7.8E-01        
            -6.312027E+00   6.312027E+00   0.0            0.0                           5.632628E+01   4.370222E+01                 
0      6    -6.312048E+00   6.312048E+00   0.0            0.0            5.002170E+01   5.633375E+01   4.370965E+01  6.9E-01        
            -9.175675E+00   9.175675E+00   0.0            0.0                           5.919738E+01   4.084603E+01                 
0      7    -9.175634E+00   9.175634E+00   0.0            0.0            5.002794E+01   5.920358E+01   4.085230E+01  6.6E-01        
            -1.033568E+01   1.033568E+01   0.0            0.0                           6.036362E+01   3.969226E+01                 
0      8    -1.033564E+01   1.033564E+01   0.0            0.0            5.003197E+01   6.036761E+01   3.969632E+01  6.6E-01        
            -9.154663E+00   9.154663E+00   0.0            0.0                           5.918663E+01   4.087730E+01                 
0      9    -9.154492E+00   9.154492E+00   0.0            0.0            5.003300E+01   5.918749E+01   4.087851E+01  6.9E-01        
            -5.194984E+00   5.194984E+00   0.0            0.0                           5.522799E+01   4.483802E+01                 
0     10    -5.195117E+00   5.195117E+00   0.0            0.0            5.003051E+01   5.522563E+01   4.483540E+01  8.1E-01        
             1.724298E+00  -1.724298E+00   0.0            0.0                           5.175481E+01   4.830622E+01                 
0     11     1.724316E+00  -1.724316E+00   0.0            0.0            5.002422E+01   5.174854E+01   4.829990E+01  6.3E-01        
             1.147656E+01  -1.147656E+01   0.0            0.0                           6.150078E+01   3.854766E+01                 
0     12     1.147656E+01  -1.147656E+01   0.0            0.0            5.001426E+01   6.149082E+01   3.853770E+01  3.6E-01        
             2.360047E+01  -2.360047E+01   0.0            0.0                           7.361473E+01   2.641379E+01                 
0     13     2.360010E+01  -2.360010E+01   0.0            0.0            5.001426E+01   7.361436E+01   2.641417E+01  3.6E-01        
             1.147697E+01  -1.147697E+01   0.0            0.0                           6.149123E+01   3.853729E+01                 
0     14     1.147715E+01  -1.147715E+01   0.0            0.0            5.002425E+01   6.150140E+01   3.854710E+01  6.3E-01        
             1.725673E+00  -1.725673E+00   0.0            0.0                           5.174992E+01   4.829858E+01                 
0     15     1.726269E+00  -1.726269E+00   0.0            0.0            5.003051E+01   5.175678E+01   4.830424E+01  8.1E-01        
            -5.194039E+00   5.194039E+00   0.0            0.0                           5.522455E+01   4.483648E+01                 
1     INERTIA RELIEF ANALYSIS OF A CIRCULAR RING                            /    95 SUN SOLARIS NASTRAN    / MAY 17, 95 / PAGE    16
      NASTRAN DEMONSTRATION PROBLEM NO. D02-01-1A                                                                                   
0     CONCENTRATED AND CENTRIFUGAL LOADS                                                                                            
 
                                 S T R E S S E S   I N   B A R   E L E M E N T S          ( C B A R )
  ELEMENT        SA1            SA2            SA3            SA4           AXIAL          SA-MAX         SA-MIN     M.S.-T
    ID.          SB1            SB2            SB3            SB4           STRESS         SB-MAX         SB-MIN     M.S.-C
0     16    -5.194140E+00   5.194140E+00   0.0            0.0            5.003306E+01   5.522720E+01   4.483892E+01  6.9E-01        
            -9.153140E+00   9.153140E+00   0.0            0.0                           5.918620E+01   4.087992E+01                 
0     17    -9.153076E+00   9.153076E+00   0.0            0.0            5.003197E+01   5.918504E+01   4.087889E+01  6.6E-01        
            -1.033928E+01   1.033928E+01   0.0            0.0                           6.037125E+01   3.969268E+01                 
0     18    -1.033936E+01   1.033936E+01   0.0            0.0            5.002794E+01   6.036729E+01   3.968858E+01  6.6E-01        
            -9.175837E+00   9.175837E+00   0.0            0.0                           5.920377E+01   4.085210E+01                 
0     19    -9.175867E+00   9.175867E+00   0.0            0.0            5.002174E+01   5.919760E+01   4.084587E+01  6.9E-01        
            -6.311644E+00   6.311644E+00   0.0            0.0                           5.633338E+01   4.371009E+01                 
0     20    -6.311645E+00   6.311645E+00   0.0            0.0            5.001428E+01   5.632593E+01   4.370264E+01  7.8E-01        
            -2.495986E+00   2.495986E+00   0.0            0.0                           5.251027E+01   4.751830E+01                 
0     21    -2.495996E+00   2.495996E+00   0.0            0.0            5.000669E+01   5.250268E+01   4.751069E+01  9.0E-01        
             1.487465E+00  -1.487465E+00   0.0            0.0                           5.149415E+01   4.851922E+01                 
0     22     1.487471E+00  -1.487471E+00   0.0            0.0            4.999998E+01   5.148746E+01   4.851251E+01  8.2E-01        
             4.921838E+00  -4.921838E+00   0.0            0.0                           5.492182E+01   4.507815E+01                 
0     23     4.921772E+00  -4.921772E+00   0.0            0.0            4.999499E+01   5.491676E+01   4.507322E+01  7.5E-01        
             7.235080E+00  -7.235080E+00   0.0            0.0                           5.723007E+01   4.275991E+01                 
0     24     7.235044E+00  -7.235044E+00   0.0            0.0            4.999234E+01   5.722738E+01   4.275730E+01  7.2E-01        
             8.047080E+00  -8.047080E+00   0.0            0.0                           5.803942E+01   4.194526E+01                 




                                        * * * END OF JOB * * *
1
 JOB TITLE =  INERTIA RELIEF ANALYSIS OF A CIRCULAR RING                         
 DATE:  5/17/95
 END TIME: 15:14:34
 TOTAL WALL CLOCK TIME      2 SEC.
 
