





                                  ****
                                *      *
                               *        *
                               *  N A S T R A N
                               *        *
                                *      *
                                  ****


                             SUN COMPUTER SYSTEMS    
                                SOLARIS VERSION

                          SYSTEM RELEASE -  1995 ED.

                                DISTRIBUTED BY

         COMPUTER SOFTWARE MANAGEMENT AND INFORMATION CENTER (COSMIC)
                 UNIVERSITY OF GEORGIA, ATHENS, GEORGIA 30602
                 PHONE: (706)542-3265      FAX: (706)542-4807
1                                                                           /    95 SUN SOLARIS NASTRAN    / MAY 17, 95 / PAGE     2
                                                                                                                                    
0                                                                                                                                   
                                                                                                         
                                                                                                         
                         INSTALLATION CENTER USER INFORMATION GIVEN IN THIS SECTION                      
                                                                                                         
                                     *********************************************                       
                                     *                                           *                       
                                     *  PLEASE READ THE COMMENT IN DEMO PROBLEM  *                       
                                     *  D01002A ABOUT SYSTEM TIMING CONSTANTS    *                       
                                     *                                           *                       
                                     *********************************************                       
                                                                                                         
                         ===X=    TOP OF PAGE REQUEST IF 'X' IS REPLACED BY '='                          
                                                                                                         
1                                                                           /    95 SUN SOLARIS NASTRAN    / MAY 17, 95 / PAGE     3
                                                                                                                                    
0                                                                                                                                   
0*** USER INFORMATION MESSAGE 225, GINO TIME CONSTANTS ARE BEING COMPUTED
     (SEE NASINFO FILE FOR ELIMINATION OF THESE COMPUTATIONS)
1                                                                           /    95 SUN SOLARIS NASTRAN    / MAY 17, 95 / PAGE     4
                                                                                                                                    
0        N A S T R A N    E X E C U T I V E    C O N T R O L    D E C K    E C H O                                                  
0                                                                                                                                   
                                                                                                                                    
                                                                                                                                    
     ID    D02034A,NASTRAN                                                           
     APP   DISP,SUBS                                                                 
     SOL   9,0                                                                       
     TIME  40                                                                        
     DIAG  23                                                                        
     CEND                                                                            


0*** USER INFORMATION MESSAGE, TURN DIAG 48 ON FOR NASTRAN RELEASE NEWS, DIAG DEFINITION, NEW DMAP
         MODULES AND NEW BULKDATA CARDS INFORMATION
1                                                                           /    95 SUN SOLARIS NASTRAN    / MAY 17, 95 / PAGE     5
                                                                                                                                    
0                            N A S T R A N  S U B S T R U C T U R E  D E C K  E C H O                                               
0                                                                                                                                   
                                                                                                                                    
                                                                                                                                    
     SUBSTRUCTURE PHASE2                                                             
     PASSWORD = MDLSYN                                                               
     SOF(1)   = FT19,500 $ DEC VAX                                                   
     OPTIONS K,M,P                                                                   
     SOFPRINT TOC                                                                    
     SOLVE RTRUSS                                                                    
     RECOVER RTRUSS                                                                  
     PRINT RTRUSS                                                                    
     OLOAD = ALL                                                                     
      PRINT ABASIC                                                                   
       UIMPROVE YES                                                                  
       RANGE 0.0,0.41                                                                
       ENERGY ALL                                                                    
      PRINT MA                                                                       
      PRINT BBASIC                                                                   
       UIMPROVE YES                                                                  
       RANGE 0.0,0.41                                                                
       ENERGY ALL                                                                    
      PRINT MB                                                                       
     SOFPRINT TOC                                                                    
       ENDSUBS
1                                                                           /    95 SUN SOLARIS NASTRAN    / MAY 17, 95 / PAGE     6
                                                                                                                                    
0                            N A S T R A N  S U B S T R U C T U R E  D E C K  E C H O                                               
0                                                                                                                                   
                                                                                                                                    
                                                                                                                                    
     ALTER DECK ECHO
        1    ALTER          4
        2    PARAM     //*ADD*/DRY/1  /0 $                                           
        3    LABEL     LBSBEG $                                                      
        4    SOFUT     //DRY/*TOC     */*SOFP*/0  /*        */*    */*    */*    */  
        5              *    */*    */*    * $                                        
        6    ALTER          5,  5
        7    PARAM     //*NOP*/ALWAYS=-1 $                                           
        8    SGEN      CASECC,GEOM3,GEOM4,DYNAMICS/CASESS,CASEI,GPL,EQEXIN,GPDT,     
        9              BGPDT,SIL,GE3S,GE4S,DYNS/S,N,DRY/*RTRUSS  */S,N,LUSET/        
       10              S,N,NOGPDT $                                                  
       11    PURGE     CSTM $                                                        
       12    EQUIV     GE3S,GEOM3/ALWAYS/GE4S,GEOM4/ALWAYS/CASEI,CASECC/ALWAYS/      
       13              DYNS,DYNAMICS/ALWAYS $                                        
       14    COND      LB3  ,DRY $                                                   
       15    ALTER         12, 22
       16    ALTER         26, 27
       17    ALTER         49, 60
       18    SOFI      /K1  ,M1  ,    ,     ,/DRY/*RTRUSS  */*KMTX*/*MMTX*/*BMTX*/   
       19              *K4MX* $                                                      
       20    EQUIV     K1  ,KGG/NOKGGX $                                             
       21    COND      LB2K,NOKGGX $                                                 
       22    ADD       KGGX,K1  /KGG/(1.0,0.0)/(1.0,0.0) $                           
       23    LABEL     LB2K $                                                        
       24    EQUIV     M1  ,MGG/NOMGG $                                              
       25    COND      LB2M,NOMGG $                                                  
       26    ADD       MGG,M1  /MGGX/(1.0,0.0)/(1.0,0.0) $                           
       27    EQUIV     MGGX,MGG/ALWAYS $                                             
       28    LABEL     LB2M $                                                        
       29    LABEL     LB3   $                                                       
       30    CHKPNT    MGG,BGG,K4GG $                                                
       31    ALTER        110,111
       32    PARAM     //*AND*/MDEMA/NOUE/NOM2PP $                                   
       33    PARAM     //*ADD*/KDEK2/1/0 $                                           
       34    PARAM     //*ADD*/NOMGG/1/0 $                                           
       35    ALTER        117,117
       36    EQUIV     K2DD,KDD/KDEK2 $                                              
       37    EQUIV     M2DD,MDD/NOMGG $                                              
       38    EQUIV     B2DD,BDD/NOBGG $                                              
       39    ALTER        136,150
       40    EQUIV     UDVT,UPVC/NOA $                                               
       41    COND      LBL19,NOA $                                                   
       42    SDR1      USETD,,UDVT,,,GOD,GMD,,,,/UPVC,,/1/DYNAMICS $                 
       43    LABEL     LBL19 $                                                       
       44    CHKPNT    UPVC $                                                        
       45    EQUIV     UPVC,UGV/NOUE $                                               
       46    COND      LBUE,NOUE $                                                   
1                                                                           /    95 SUN SOLARIS NASTRAN    / MAY 17, 95 / PAGE     7
                                                                                                                                    
0                            N A S T R A N  S U B S T R U C T U R E  D E C K  E C H O                                               
0                                                                                                                                   
                                                                                                                                    
                                                                                                                                    
     ALTER DECK ECHO
       47    UPARTN    USET,UPVC/UGV,UEV,,/*P*/*G*/*E* $                             
       48    LABEL     LBUE $                                                        
       49    FILE      U1=APPEND/U2=APPEND/U3=APPEND/U4=APPEND/U5=APPEND $           
       50    PARAM     //*ADD*/ILOOP/0/0 $                                           
       51    LABEL     LB4   $                                                       
       52    RCOVR     CASESS,GEOM4,KGG,MGG,PPT,UGV ,DIT,DLT,   ,    ,TOL/OUGV1 ,    
       53              OPG1,OQG1,U1,U2,U3,U4,U5/S,N,DRY/S,N,ILOOP/4  /*RTRUSS  */    
       54              9   /     /S,N,LUI/S,N,U1N/S,N,U2N/S,N,U3N/S,N,U4N/S,N,U5N/   
       55              S,N,NOSORT2/V,Y,UTHRESH/V,Y,PTHRESH/V,Y,QTHRESH $             
       56    EQUIV     OUGV1 ,OUGV /NOSORT2/OQG1,OQG/NOSORT2 $                       
       57    EQUIV     OPG1,OPG/NOSORT2 $                                            
       58    COND      NST24  ,NOSORT2 $                                             
       59    SDR3      OUGV1 ,OPG1,OQG1,,,/OUGV ,OPG,OQG,,, $                        
       60    LABEL     NST24   $                                                     
       61    OFP       OUGV ,OPG,OQG,,,//S,N,CARDNO $                                
       62    COND      LBB4  ,ILOOP $                                                
       63    REPT      LB4  ,100 $                                                   
       64    LABEL     LBB4   $                                                      
       65    SOFO      ,U1,U2,U3,U4,U5//-1/*XXXXXXXX* $                              
       66    SOFUT     //DRY/*TOC     */*SOFP*/0  /*        */*    */*    */*    */  
       67              *    */*    */*    * $                                        
       68    LABEL     LBSEND $                                                      
       69    JUMP      FINIS $                                                       
1     TRUSS DYNAMIC ANALYSIS USING AUTOMATED MODAL SYNTHESIS                /    95 SUN SOLARIS NASTRAN    / MAY 17, 95 / PAGE     8
      NASTRAN DEMONSTRATION PROBLEM NO. D02-03-4A                                                                                   
0     SOLVE AND RECOVERY, RUN 4, PHASE 2, RF 9                                                                                      
0                                        C A S E    C O N T R O L   D E C K   E C H O                                               
                 CARD                                                                                                               
                 COUNT                                                                                                              
                  1      TITLE    = TRUSS DYNAMIC ANALYSIS USING AUTOMATED MODAL SYNTHESIS               
                  2      SUBTITLE = NASTRAN DEMONSTRATION PROBLEM NO. D02-03-4A                          
                  3      LABEL    = SOLVE AND RECOVERY, RUN 4, PHASE 2, RF 9                             
                  4         SET 1 = 7 THRU 13                                                            
                  5           SPC = 123                                                                  
                  6         DLOAD = 101                                                                  
                  7            IC = 522                                                                  
                  8         TSTEP = 40                                                                   
                  9         OLOAD = ALL                                                                  
                 10          DISP = ALL                                                                  
                 11      SDISP(SORT2) = 1                                                                
                 12      BEGIN BULK                                                                      


                        (NO. OF UNSORTED BULK DATA CARDS READ =     8, INCLUDING   0 COMMENT CARDS)
0*** USER INFORMATION MESSAGE 207, BULK DATA DECK IS NOT SORTED. NASTRAN WILL RE-ORDER THE INPUT DECK.
1     TRUSS DYNAMIC ANALYSIS USING AUTOMATED MODAL SYNTHESIS                /    95 SUN SOLARIS NASTRAN    / MAY 17, 95 / PAGE     9
      NASTRAN DEMONSTRATION PROBLEM NO. D02-03-4A                                                                                   
0     SOLVE AND RECOVERY, RUN 4, PHASE 2, RF 9                                                                                      
0                                                 S O R T E D   B U L K    D A T A    E C H O                                       
                     CARD                                                                                                           
                     COUNT        ---1--- +++2+++ ---3--- +++4+++ ---5--- +++6+++ ---7--- +++8+++ ---9--- +++10+++                  
                    1-        DAREAS  980     BBASIC  2       2       1.0+3                                   
                    2-        LOADC   980     1.0     ABASIC  980     1.0                                     
                    3-        PARAM   G       .05                                                             
                    4-        PARAM   W3      .01                                                             
                    5-        SPCS1   123     ABASIC  12      1       2       3                               
                    6-        TICS    522     BBASIC  2       2       .1                                      
                    7-        TLOAD2  101     980                     .39     12.0                            
                    8-        TSTEP   40      40      2.0-2   1                                               
                              ENDDATA
1     TRUSS DYNAMIC ANALYSIS USING AUTOMATED MODAL SYNTHESIS                /    95 SUN SOLARIS NASTRAN    / MAY 17, 95 / PAGE    10
      NASTRAN DEMONSTRATION PROBLEM NO. D02-03-4A                                                                                   
0     SOLVE AND RECOVERY, RUN 4, PHASE 2, RF 9                                                                                      
0         COSMIC / NASTRAN DMAP COMPILER - SOURCE LISTING                                                                           
                                                                                                                                    
                                                                                                                                    
0  OPTIONS IN EFFECT GO      ERR=2   LIST    NODECK  NOREF   NOOSCAR 
   -----------------


       1  BEGIN    DISP 09 - DIRECT TRANSIENT RESPONSE ANALYSIS - APR. 1995 $     

       2  PRECHK   ALL $                                                          

       3  FILE     UDVT=APPEND/TOL=APPEND/RLODDISP=APPEND $                       

       4  PARAM    //*MPY*/CARDNO/0/0 $                                           

       4  PARAM     //*ADD*/DRY/1  /0 $                                           

       4  LABEL     LBSBEG $                                                      

       4  SOFUT     //DRY/*TOC     */*SOFP*/0  /*        */*    */*    */*    */  
                    *    */*    */*    * $                                        

       5  PARAM     //*NOP*/ALWAYS=-1 $                                           

       5  SGEN      CASECC,GEOM3,GEOM4,DYNAMICS/CASESS,CASEI,GPL,EQEXIN,GPDT,     
                    BGPDT,SIL,GE3S,GE4S,DYNS/S,N,DRY/*RTRUSS  */S,N,LUSET/        
                    S,N,NOGPDT $                                                  

       5  PURGE     CSTM $                                                        

       5  EQUIV     GE3S,GEOM3/ALWAYS/GE4S,GEOM4/ALWAYS/CASEI,CASECC/ALWAYS/      
                    DYNS,DYNAMICS/ALWAYS $                                        

       5  COND      LB3  ,DRY $                                                   

       6  ANISOP   GEOM1,EPT,BGPDT,EQEXIN,MPT/MPTA/S,N,ISOP $                     

       7  EQUIV    MPTA,MPT/ISOP $                                                

       8  PLTTRAN  BGPDT,SIL/BGPDP,SIP/LUSET/S,N,LUSEP $                          

       9  PURGE    USET,GM,GO,KAA,BAA,MAA,K4AA,PST,KFS,QP,EST,ECT,PLTSETX,PLTPAR, 
                   GPSETS,ELSETS/NOGPDT $                                         

      10  COND     LBL5,NOGPDT $                                                  

      11  GP2      GEOM2,EQEXIN/ECT $                                             

      23  GP3      GEOM3,EQEXIN,GEOM2/SLT,GPTT/NOGRAV $                           
1     TRUSS DYNAMIC ANALYSIS USING AUTOMATED MODAL SYNTHESIS                /    95 SUN SOLARIS NASTRAN    / MAY 17, 95 / PAGE    11
      NASTRAN DEMONSTRATION PROBLEM NO. D02-03-4A                                                                                   

      SOLVE AND RECOVERY, RUN 4, PHASE 2, RF 9                                                                                      

          COSMIC / NASTRAN DMAP COMPILER - SOURCE LISTING                                                                           
                                                                                                                                    
                                                                                                                                    

      24  TA1      ECT,EPT,BGPDT,SIL,GPTT,CSTM,MPT,EQEXIN/EST,GEI,GPECT,,,MPTX,   
                   PCOMPS,EPTX/LUSET/S,N,NOSIMP=-1/1/S,N,NOGENL=-1/GENEL/         
                   S,N,COMPS                                                      

      25  EQUIV    MPTX,MPT/COMPS/EPTX,EPT/COMPS $                                

      28  PARAM    //*ADD*/NOKGGX/1/0 $                                           

      29  PARAM    //*ADD*/NOMGG/1/0 $                                            

      30  PARAM    //*ADD*/NOBGG=-1/1/0 $                                         

      31  PARAM    //*ADD*/NOK4GG/1/0 $                                           

      32  EMG      EST,CSTM,MPT,DIT,GEOM2,/KELM,KDICT,MELM,MDICT,BELM,BDICT,/     
                   S,N,NOKGGX/S,N,NOMGG/S,N,NOBGG/S,N,NOK4GG//C,Y,COUPMASS/       
                   C,Y,CPBAR/C,Y,CPROD/C,Y,CPQUAD1/C,Y,CPQUAD2/C,Y,CPTRIA1/       
                   C,Y,CPTRIA2/C,Y,CPTUBE/C,Y,CPQDPLT/C,Y,CPTRPLT/C,Y,CPTRBSC/    
                   C,Y,VOLUME/C,Y,SURFACE $                                       

      33  PURGE    KGGX/NOKGGX/MGG/NOMGG $                                        

      34  COND     LBLKGGX,NOKGGX $                                               

      35  EMA      GPECT,KDICT,KELM/KGGX $                                        

      36  LABEL    LBLKGGX $                                                      

      37  COND     LBLMGG,NOMGG $                                                 

      38  EMA      GPECT,MDICT,MELM/MGG/-1/C,Y,WTMASS=1.0 $                       

      39  PURGE    MDICT,MELM/ALWAYS $                                            

      40  LABEL    LBLMGG $                                                       

      41  COND     LBLBGG,NOBGG $                                                 

      42  EMA      GPECT,BDICT,BELM/BGG $                                         

      43  PURGE    BDICT,BELM/ALWAYS $                                            

      44  LABEL    LBLBGG $                                                       

      45  COND     LBLK4GG,NOK4GG $                                               
1     TRUSS DYNAMIC ANALYSIS USING AUTOMATED MODAL SYNTHESIS                /    95 SUN SOLARIS NASTRAN    / MAY 17, 95 / PAGE    12
      NASTRAN DEMONSTRATION PROBLEM NO. D02-03-4A                                                                                   

      SOLVE AND RECOVERY, RUN 4, PHASE 2, RF 9                                                                                      

          COSMIC / NASTRAN DMAP COMPILER - SOURCE LISTING                                                                           
                                                                                                                                    
                                                                                                                                    

      46  EMA      GPECT,KDICT,KELM/K4GG/NOK4GG $                                 

      47  LABEL    LBLK4GG $                                                      

      48  PURGE    KDICT,KELM/ALWAYS $                                            

      60  SOFI      /K1  ,M1  ,    ,     ,/DRY/*RTRUSS  */*KMTX*/*MMTX*/*BMTX*/   
                    *K4MX* $                                                      

      60  EQUIV     K1  ,KGG/NOKGGX $                                             

      60  COND      LB2K,NOKGGX $                                                 

      60  ADD       KGGX,K1  /KGG/(1.0,0.0)/(1.0,0.0) $                           

      60  LABEL     LB2K $                                                        

      60  EQUIV     M1  ,MGG/NOMGG $                                              

      60  COND      LB2M,NOMGG $                                                  

      60  ADD       MGG,M1  /MGGX/(1.0,0.0)/(1.0,0.0) $                           

      60  EQUIV     MGGX,MGG/ALWAYS $                                             

      60  LABEL     LB2M $                                                        

      60  LABEL     LB3   $                                                       

      60  CHKPNT    MGG,BGG,K4GG $                                                

      61  PARAM    //*MPY*/NSKIP/0/0 $                                            

      62  GP4      CASECC,GEOM4,EQEXIN,GPDT,BGPDT,CSTM,GPST/RG,,USET,             
                   ASET,OGPST/LUSET/S,N,MPCF1/S,N,MPCF2/S,N,SINGLE/S,N,OMIT/      
                   S,N,REACT/S,N,NSKIP/S,N,REPEAT/S,N,NOSET/S,N,NOL/S,N,NOA/      
                   C,Y,ASETOUT/C,Y,AUTOSPC $                                      

      63  OFP      OGPST,,,,,//S,N,CARDNO $                                       

      64  PURGE    GM,GMD/MPCF1/GO,GOD/OMIT/KFS,PST,QP/SINGLE $                   

      65  EQUIV    KGG,KNN/MPCF1/MGG,MNN/MPCF1/ BGG,BNN/MPCF1/K4GG,K4NN/MPCF1 $   

      66  COND     LBL2,MPCF1 $                                                   
1     TRUSS DYNAMIC ANALYSIS USING AUTOMATED MODAL SYNTHESIS                /    95 SUN SOLARIS NASTRAN    / MAY 17, 95 / PAGE    13
      NASTRAN DEMONSTRATION PROBLEM NO. D02-03-4A                                                                                   

      SOLVE AND RECOVERY, RUN 4, PHASE 2, RF 9                                                                                      

          COSMIC / NASTRAN DMAP COMPILER - SOURCE LISTING                                                                           
                                                                                                                                    
                                                                                                                                    

      67  MCE1     USET,RG/GM $                                                   

      68  MCE2     USET,GM,KGG,MGG,BGG,K4GG/KNN,MNN,BNN,K4NN  $                   

      69  LABEL    LBL2 $                                                         

      70  EQUIV    KNN,KFF/SINGLE/MNN,MFF/SINGLE/BNN,BFF/SINGLE/K4NN,K4FF/SINGLE $

      71  COND     LBL3,SINGLE $                                                  

      72  SCE1     USET,KNN,MNN,BNN,K4NN/KFF,KFS,   ,MFF,BFF,K4FF $               

      73  LABEL    LBL3 $                                                         

      74  EQUIV    KFF,KAA/OMIT $                                                 

      75  EQUIV    MFF,MAA/OMIT $                                                 

      76  EQUIV    BFF,BAA/OMIT $                                                 

      77  EQUIV    K4FF,K4AA/OMIT $                                               

      78  COND     LBL5,OMIT $                                                    

      79  SMP1     USET,KFF,,,/GO,KAA,KOO,LOO,,,,, $                              

      80  COND     LBLM,NOMGG $                                                   

      81  SMP2     USET,GO,MFF/MAA $                                              

      82  LABEL    LBLM $                                                         

      83  COND     LBLB,NOBGG $                                                   

      84  SMP2     USET,GO,BFF/BAA $                                              

      85  LABEL    LBLB $                                                         

      86  COND     LBL5,NOK4GG $                                                  

      87  SMP2     USET,GO,K4FF/K4AA $                                            

      88  LABEL    LBL5 $                                                         

      89  DPD      DYNAMICS,GPL,SIL,USET/GPLD,SILD,USETD,TFPOOL,DLT,,,NLFT,TRL,,  
1     TRUSS DYNAMIC ANALYSIS USING AUTOMATED MODAL SYNTHESIS                /    95 SUN SOLARIS NASTRAN    / MAY 17, 95 / PAGE    14
      NASTRAN DEMONSTRATION PROBLEM NO. D02-03-4A                                                                                   
0     SOLVE AND RECOVERY, RUN 4, PHASE 2, RF 9                                                                                      
0         COSMIC / NASTRAN DMAP COMPILER - SOURCE LISTING                                                                           
                                                                                                                                    
                                                                                                                                    
                   EQDYN/LUSET/S,N,LUSETD/NOTFL/S,N,NODLT/NOPSDL/                 
                   NOFRL/S,N,NONLFT/S,N,NOTRL/NOEED//S,N,NOUE $                   

      90  COND     ERROR1,NOTRL $                                                 

      91  PURGE    PNLD/NONLFT$                                                   

      92  EQUIV    GO,GOD/NOUE/GM,GMD/NOUE  $                                     

      93  BMG      MATPOOL,BGPDT,EQEXIN,CSTM/BDPOOL/S,N,NOKBFL/S,N,NOABFL/        
                   S,N,MFACT $                                                    

      94  PARAM    //*AND*/NOFL/NOABFL/NOKBFL $                                   

      95  PURGE    KBFL/NOKBFL/ ABFL/NOABFL $                                     

      96  COND     LBLFL3,NOFL $                                                  

      97  MTRXIN,  ,BDPOOL,EQDYN,,/ABFL,KBFL,/LUSETD/S,N,NOABFL/S,N,NOKBFL/       
                   0 $                                                            

      98  LABEL    LBLFL3 $                                                       

      99  MTRXIN   CASECC,MATPOOL,EQDYN,,TFPOOL/K2DPP,M2DPP,B2PP/LUSETD/S,N,      
                   NOK2DPP/S,N,NOM2DPP/S,N,NOB2PP $                               

     100  PARAM    //*AND*/NOM2PP/NOABFL/NOM2DPP $                                

     101  PARAM    //*AND*/NOK2PP/NOFL  /NOK2DPP $                                

     102  EQUIV    K2DPP,K2PP/NOFL/M2DPP,M2PP/NOABFL $                            

     103  COND     LBLFL2,NOFL $                                                  

     104  ADD5     ABFL,KBFL,K2DPP,,/K2PP/(-1.0,0.0) $                            

     105  COND     LBLFL2,NOABFL $                                                

     106  TRNSP    ABFL/ABFLT $                                                   

     107  ADD      ABFLT,M2DPP/M2PP/MFACT/(1.0,0.0) $                             

     108  LABEL    LBLFL2 $                                                       

     109  PARAM    //*AND*/KDEKA/NOUE/NOK2PP $                                    

     111  PARAM     //*AND*/MDEMA/NOUE/NOM2PP $                                   
1     TRUSS DYNAMIC ANALYSIS USING AUTOMATED MODAL SYNTHESIS                /    95 SUN SOLARIS NASTRAN    / MAY 17, 95 / PAGE    15
      NASTRAN DEMONSTRATION PROBLEM NO. D02-03-4A                                                                                   

      SOLVE AND RECOVERY, RUN 4, PHASE 2, RF 9                                                                                      

          COSMIC / NASTRAN DMAP COMPILER - SOURCE LISTING                                                                           
                                                                                                                                    
                                                                                                                                    

     111  PARAM     //*ADD*/KDEK2/1/0 $                                           

     111  PARAM     //*ADD*/NOMGG/1/0 $                                           

     112  PURGE    K2DD/NOK2PP/M2DD/NOM2PP/B2DD/NOB2PP $                          

     113  EQUIV    M2PP,M2DD/NOA/B2PP,B2DD/NOA/K2PP,K2DD/NOA/MAA,MDD/MDEMA/       
                   KAA,KDD/KDEKA $                                                

     114  COND     LBL16,NOGPDT $                                                 

     115  GKAD     USETD,GM,GO,KAA,BAA,MAA,K4AA,K2PP,M2PP,B2PP/KDD,BDD,MDD,GMD,   
                   GOD,K2DD,M2DD,B2DD/*TRANRESP*/*DISP*/*DIRECT*/C,Y,G=0.0/       
                   C,Y,W3=0.0/C,Y,W4=0.0/NOK2PP/NOM2PP/NOB2PP/                    
                   MPCF1/SINGLE/OMIT/NOUE/NOK4GG/NOBGG/                           
                   KDEK2/-1 $                                                     

     116  LABEL    LBL16 $                                                        

     117  EQUIV     K2DD,KDD/KDEK2 $                                              

     117  EQUIV     M2DD,MDD/NOMGG $                                              

     117  EQUIV     B2DD,BDD/NOBGG $                                              

     118  PARAM    //*ADD*/NEVER/1/0 $                                            

     119  PARAM    //*MPY*/REPEATT/1/-1 $                                         

     120  LABEL    LBL13 $                                                        

     121  PURGE    PNLD,OUDV1,OPNL1,OUDV2,OPNL2,XYPLTTA,OPP1,OQP1,OUPV1,OES1,     
                   OEF1,OPP2,OQP2,OUPV2,OES2,OEF2,PLOTX2,XYPLTT/NEVER $           

     122  CASE     CASECC,/CASEXX/*TRAN*/S,N,REPEATT/S,N,NOLOOP $                 

     123  PARAM    //*MPY*/NCOL/0/1 $                                             

     124  TRLG     CASEXX,USETD,DLT,SLT,BGPDT,SIL,CSTM,TRL,DIT,GMD,GOD,,EST,MGG,  
                   MPT/PPT,PST,PDT,PD,,TOL/S,N,NOSET/NCOL $                       

     125  EQUIV    PPT,PDT/NOSET $                                                

     126  TRD      CASEXX,TRL,NLFT,DIT,KDD,BDD,MDD,PD/UDVT,PNLD,RLODDISP/*DIRECT*/
                   NOUE/NONCUP/S,N,NCOL/C,Y,ISTART $                              
1     TRUSS DYNAMIC ANALYSIS USING AUTOMATED MODAL SYNTHESIS                /    95 SUN SOLARIS NASTRAN    / MAY 17, 95 / PAGE    16
      NASTRAN DEMONSTRATION PROBLEM NO. D02-03-4A                                                                                   

      SOLVE AND RECOVERY, RUN 4, PHASE 2, RF 9                                                                                      

          COSMIC / NASTRAN DMAP COMPILER - SOURCE LISTING                                                                           
                                                                                                                                    
                                                                                                                                    

     127  VDR      CASEXX,EQDYN,USETD,UDVT,TOL,XYCDB,PNLD/OUDV1,OPNL1/            
                   *TRANRESP*/*DIRECT*/0/S,N,NOD/S,N,NOP/0 $                      

     128  COND     LBL15,NOD $                                                    

     129  SDR3     OUDV1,OPNL1,,,,/OUDV2,OPNL2,,,, $                              

     130  OFP      OUDV2,OPNL2,,,,//S,N,CARDNO $                                  

     131  XYTRAN   XYCDB,OUDV2,OPNL2,,,/XYPLTTA/*TRAN*/*DSET*/S,N,PFILE/          
                   S,N,CARDNO $                                                   

     132  XYPLOT   XYPLTTA// $                                                    

     133  LABEL    LBL15 $                                                        

     134  PARAM    //*AND*/PJUMP/NOP/JUMPPLOT $                                   

     135  COND     LBL18,PJUMP $                                                  

     150  EQUIV     UDVT,UPVC/NOA $                                               

     150  COND      LBL19,NOA $                                                   

     150  SDR1      USETD,,UDVT,,,GOD,GMD,,,,/UPVC,,/1/DYNAMICS $                 

     150  LABEL     LBL19 $                                                       

     150  CHKPNT    UPVC $                                                        

     150  EQUIV     UPVC,UGV/NOUE $                                               

     150  COND      LBUE,NOUE $                                                   

     150  UPARTN    USET,UPVC/UGV,UEV,,/*P*/*G*/*E* $                             

     150  LABEL     LBUE $                                                        

     150  FILE      U1=APPEND/U2=APPEND/U3=APPEND/U4=APPEND/U5=APPEND $           

     150  PARAM     //*ADD*/ILOOP/0/0 $                                           

     150  LABEL     LB4   $                                                       

     150  RCOVR     CASESS,GEOM4,KGG,MGG,PPT,UGV ,DIT,DLT,   ,    ,TOL/OUGV1 ,    
1     TRUSS DYNAMIC ANALYSIS USING AUTOMATED MODAL SYNTHESIS                /    95 SUN SOLARIS NASTRAN    / MAY 17, 95 / PAGE    17
      NASTRAN DEMONSTRATION PROBLEM NO. D02-03-4A                                                                                   
0     SOLVE AND RECOVERY, RUN 4, PHASE 2, RF 9                                                                                      
0         COSMIC / NASTRAN DMAP COMPILER - SOURCE LISTING                                                                           
                                                                                                                                    
                                                                                                                                    
                    OPG1,OQG1,U1,U2,U3,U4,U5/S,N,DRY/S,N,ILOOP/4  /*RTRUSS  */    
                    9   /     /S,N,LUI/S,N,U1N/S,N,U2N/S,N,U3N/S,N,U4N/S,N,U5N/   
                    S,N,NOSORT2/V,Y,UTHRESH/V,Y,PTHRESH/V,Y,QTHRESH $             

     150  EQUIV     OUGV1 ,OUGV /NOSORT2/OQG1,OQG/NOSORT2 $                       

     150  EQUIV     OPG1,OPG/NOSORT2 $                                            

     150  COND      NST24  ,NOSORT2 $                                             

     150  SDR3      OUGV1 ,OPG1,OQG1,,,/OUGV ,OPG,OQG,,, $                        

     150  LABEL     NST24   $                                                     

     150  OFP       OUGV ,OPG,OQG,,,//S,N,CARDNO $                                

     150  COND      LBB4  ,ILOOP $                                                

     150  REPT      LB4  ,100 $                                                   

     150  LABEL     LBB4   $                                                      

     150  SOFO      ,U1,U2,U3,U4,U5//-1/*XXXXXXXX* $                              

     150  SOFUT     //DRY/*TOC     */*SOFP*/0  /*        */*    */*    */*    */  
                    *    */*    */*    * $                                        

     150  LABEL     LBSEND $                                                      

     150  JUMP      FINIS $                                                       

     151  LABEL    LBL18 $                                                        

     152  COND     FINIS,REPEATT $                                                

     153  REPT     LBL13,100 $                                                    

     154  PRTPARM  //-2/*DIRTRD* $                                                

     155  JUMP     FINIS $                                                        

     156  LABEL    ERROR1 $                                                       

     157  PRTPARM  //-1/*DIRTRD* $                                                

     158  LABEL    ERROR3 $                                                       

     159  PRTPARM  //-3/*DIRTRD* $                                                
1     TRUSS DYNAMIC ANALYSIS USING AUTOMATED MODAL SYNTHESIS                /    95 SUN SOLARIS NASTRAN    / MAY 17, 95 / PAGE    18
      NASTRAN DEMONSTRATION PROBLEM NO. D02-03-4A                                                                                   

      SOLVE AND RECOVERY, RUN 4, PHASE 2, RF 9                                                                                      

          COSMIC / NASTRAN DMAP COMPILER - SOURCE LISTING                                                                           
                                                                                                                                    
                                                                                                                                    

     160  LABEL    FINIS  $                                                       

     161  PURGE    DUMMY/ALWAYS $                                                 

     162  END      $                                                              
0*** USER WARNING MESSAGE   27,
     LABEL NAMED ERROR3   NOT REFERENCED
0*** USER WARNING MESSAGE   27,
     LABEL NAMED LBSEND   NOT REFERENCED
0*** USER WARNING MESSAGE   27,
     LABEL NAMED LBSBEG   NOT REFERENCED
1     TRUSS DYNAMIC ANALYSIS USING AUTOMATED MODAL SYNTHESIS                /    95 SUN SOLARIS NASTRAN    / MAY 17, 95 / PAGE    19
      NASTRAN DEMONSTRATION PROBLEM NO. D02-03-4A                                                                                   
0     SOLVE AND RECOVERY, RUN 4, PHASE 2, RF 9                                                                                      
0                                                                                                                                   
                                                                                                                                    
                                                                                                                                    

 *** USER POTENTIALLY FATAL MESSAGE  22,
                              POSSIBLE ERROR IN DMAP INSTRUCTION TA1        INSTRUCTION NO.  24
     DATA BLOCK NAMED CSTM     APPEARS AS INPUT BEFORE BEING DEFINED

 *** USER POTENTIALLY FATAL MESSAGE  22,
                              POSSIBLE ERROR IN DMAP INSTRUCTION GP4        INSTRUCTION NO.  62
     DATA BLOCK NAMED GPST     APPEARS AS INPUT BEFORE BEING DEFINED
0          **NO ERRORS FOUND - EXECUTE NASTRAN PROGRAM**
0*** SYSTEM INFORMATION MESSAGE 6201,  1 FILES HAVE BEEN ALLOCATED TO THE SOF WHERE --
     SIZE OF FILE  1 =        488 BLOCKS
     AND WHERE A BLOCK CONTAINS 1024 WORDS
1     TRUSS DYNAMIC ANALYSIS USING AUTOMATED MODAL SYNTHESIS                /    95 SUN SOLARIS NASTRAN    / MAY 17, 95 / PAGE    20
      NASTRAN DEMONSTRATION PROBLEM NO. D02-03-4A                                                                                   
0     SOLVE AND RECOVERY, RUN 4, PHASE 2, RF 9                                                                                      


                          S U B S T R U C T U R E   O P E R A T I N G   F I L E   T A B L E   O F   C O N T E N T S 

                                                    E  B  C  L  P  K  M  P  P  U  H  U  Q  S  P  P  L  L  G  P  L  K  B  P  H      
                                                    Q  G  S  O  L  M  M  V  O  P  O  V  V  O  A  O  O  M  I  H  A  4  M  H  L      
                                                    S  S  T  D  T  T  T  E  V  R  R  E  E  L  P  A  A  T  M  I  M  M  T  I  F      
     SUBSTRUCTURE                                   S  S  M  S  S  X  X  C  E  T  G  C  C  N  P  P  P  X  S  S  S  X  X  L  T      
     NO.   NAME    TYPE   SS   PS   LL   CS   HL    --------------------------------------------------------------------------------

       1  ABASIC     B     0    0    0    0    3    3  3     3     3  3  3  3  3  3                       3  3  3            
       2  BBASIC     B     0    0    0    0    4    3  3     3     3  3  3  3  3  3                       3  3  3            
       3  MA         M     0    0    1    4    5    3  3     3     3  3  3        3                                          
       4  MB         M     0    0    2    3    5    3  3     3     3  3  3        3                                          
       5  MCOMB      C     0    0    3    0    6    3  3     3  3  3  3  3  3  3  3                       3  3  3            
       6  RTRUSS     M     0    0    5    0    0    3  3     3  3  3  3  3                                                   


                                                   SIZE OF ITEM IS GIVEN IN POWERS OF TEN   (0 INDICATES DATA IS STORED IN PRIMARY)
0*** UNUSED SPACE ON SOF =   433152 WORDS.
                      OR =      423 BLOCKS.
                      OR =       86 PERCENT.
0*** HIGHEST BLOCK USED  =       65
1     TRUSS DYNAMIC ANALYSIS USING AUTOMATED MODAL SYNTHESIS                /    95 SUN SOLARIS NASTRAN    / MAY 17, 95 / PAGE    21
      NASTRAN DEMONSTRATION PROBLEM NO. D02-03-4A                                                                                   

      SOLVE AND RECOVERY, RUN 4, PHASE 2, RF 9                                                                                      




0*** SYSTEM WARNING MESSAGE 3022
+                                 (SEE PROG. MANUAL SEC. 4.9.7, OR USERS' MANUAL P. 6.5-3)
     DATA BLOCK CSTM     MAY BE REQUIRED AS INPUT AND IS NOT OUTPUT BY A PREVIOUS MODULE IN THE CURRENT DMAP ROUTE.
0*** SYSTEM WARNING MESSAGE 3022
+                                 (SEE PROG. MANUAL SEC. 4.9.7, OR USERS' MANUAL P. 6.5-3)
     DATA BLOCK CSTM     MAY BE REQUIRED AS INPUT AND IS NOT OUTPUT BY A PREVIOUS MODULE IN THE CURRENT DMAP ROUTE.
0*** SYSTEM WARNING MESSAGE 3022
+                                 (SEE PROG. MANUAL SEC. 4.9.7, OR USERS' MANUAL P. 6.5-3)
     DATA BLOCK CSTM     MAY BE REQUIRED AS INPUT AND IS NOT OUTPUT BY A PREVIOUS MODULE IN THE CURRENT DMAP ROUTE.
0*** SYSTEM WARNING MESSAGE 3022
+                                 (SEE PROG. MANUAL SEC. 4.9.7, OR USERS' MANUAL P. 6.5-3)
     DATA BLOCK GPST     MAY BE REQUIRED AS INPUT AND IS NOT OUTPUT BY A PREVIOUS MODULE IN THE CURRENT DMAP ROUTE.
0*** SYSTEM WARNING MESSAGE 3022
+                                 (SEE PROG. MANUAL SEC. 4.9.7, OR USERS' MANUAL P. 6.5-3)
     DATA BLOCK GPST     MAY BE REQUIRED AS INPUT AND IS NOT OUTPUT BY A PREVIOUS MODULE IN THE CURRENT DMAP ROUTE.
0*** SYSTEM WARNING MESSAGE 3022
+                                 (SEE PROG. MANUAL SEC. 4.9.7, OR USERS' MANUAL P. 6.5-3)
     DATA BLOCK GPST     MAY BE REQUIRED AS INPUT AND IS NOT OUTPUT BY A PREVIOUS MODULE IN THE CURRENT DMAP ROUTE.
1     TRUSS DYNAMIC ANALYSIS USING AUTOMATED MODAL SYNTHESIS                /    95 SUN SOLARIS NASTRAN    / MAY 17, 95 / PAGE    22
      NASTRAN DEMONSTRATION PROBLEM NO. D02-03-4A                                                                                   
0     SOLVE AND RECOVERY, RUN 4, PHASE 2, RF 9                                                                                      
      POINT-ID =       7
                                       D I S P L A C E M E N T   V E C T O R   (SOLUTION SET)
 
       TIME       TYPE          T1             T2             T3             R1             R2             R3
   0.0              S      1.000000E-01                                                                                             
   2.000000E-02     S      8.815945E-02                                                                                             
   4.000000E-02     S      6.656072E-02                                                                                             
   6.000000E-02     S      3.653554E-02                                                                                             
   8.000000E-02     S      4.480211E-03                                                                                             
   9.999999E-02     S     -3.194106E-02                                                                                             
   1.200000E-01     S     -6.737154E-02                                                                                             
   1.400000E-01     S     -8.747876E-02                                                                                             
   1.600000E-01     S     -8.548176E-02                                                                                             
   1.800000E-01     S     -6.843473E-02                                                                                             
   2.000000E-01     S     -4.407183E-02                                                                                             
   2.200000E-01     S     -1.103443E-02                                                                                             
   2.400000E-01     S      3.025798E-02                                                                                             
   2.600000E-01     S      6.635091E-02                                                                                             
   2.800000E-01     S      8.341487E-02                                                                                             
   3.000000E-01     S      8.328048E-02                                                                                             
   3.200000E-01     S      7.347896E-02                                                                                             
   3.400000E-01     S      5.150254E-02                                                                                             
   3.600000E-01     S      1.380486E-02                                                                                             
   3.800000E-01     S     -2.907512E-02                                                                                             
   4.000000E-01     S     -1.245541E-02                                                                                             
   4.200000E-01     S      5.247950E-02                                                                                             
   4.400001E-01     S      1.738018E-01                                                                                             
   4.600001E-01     S      3.338889E-01                                                                                             
   4.800001E-01     S      5.253527E-01                                                                                             
   5.000001E-01     S      7.059575E-01                                                                                             
   5.200000E-01     S      8.252974E-01                                                                                             
   5.400000E-01     S      8.613840E-01                                                                                             
   5.600000E-01     S      8.171533E-01                                                                                             
   5.800000E-01     S      7.085238E-01                                                                                             
   6.000000E-01     S      5.485846E-01                                                                                             
   6.199999E-01     S      3.519410E-01                                                                                             
   6.399999E-01     S      1.657290E-01                                                                                             
   6.599999E-01     S      4.705777E-02                                                                                             
   6.799999E-01     S      5.316249E-03                                                                                             
   6.999999E-01     S      2.580528E-02                                                                                             
   7.199998E-01     S      1.205863E-01                                                                                             
   7.399998E-01     S      2.918324E-01                                                                                             
   7.599998E-01     S      4.913020E-01                                                                                             
   7.799998E-01     S      6.643022E-01                                                                                             
   7.999998E-01     S      7.893048E-01                                                                                             
1     TRUSS DYNAMIC ANALYSIS USING AUTOMATED MODAL SYNTHESIS                /    95 SUN SOLARIS NASTRAN    / MAY 17, 95 / PAGE    23
      NASTRAN DEMONSTRATION PROBLEM NO. D02-03-4A                                                                                   
0     SOLVE AND RECOVERY, RUN 4, PHASE 2, RF 9                                                                                      
      POINT-ID =       8
                                       D I S P L A C E M E N T   V E C T O R   (SOLUTION SET)
 
       TIME       TYPE          T1             T2             T3             R1             R2             R3
   0.0              S      0.0                                                                                                      
   2.000000E-02     S     -1.523045E-02                                                                                             
   4.000000E-02     S     -1.237081E-02                                                                                             
   6.000000E-02     S     -7.042690E-03                                                                                             
   8.000000E-02     S     -4.196157E-04                                                                                             
   9.999999E-02     S      6.231257E-03                                                                                             
   1.200000E-01     S      1.179453E-02                                                                                             
   1.400000E-01     S      1.505227E-02                                                                                             
   1.600000E-01     S      1.537959E-02                                                                                             
   1.800000E-01     S      1.287046E-02                                                                                             
   2.000000E-01     S      7.850649E-03                                                                                             
   2.200000E-01     S      1.276599E-03                                                                                             
   2.400000E-01     S     -5.437912E-03                                                                                             
   2.600000E-01     S     -1.116264E-02                                                                                             
   2.800000E-01     S     -1.480745E-02                                                                                             
   3.000000E-01     S     -1.551803E-02                                                                                             
   3.200000E-01     S     -1.331131E-02                                                                                             
   3.400000E-01     S     -8.614450E-03                                                                                             
   3.600000E-01     S     -2.167254E-03                                                                                             
   3.800000E-01     S      4.645561E-03                                                                                             
   4.000000E-01     S      1.381419E-01                                                                                             
   4.200000E-01     S      1.297451E-01                                                                                             
   4.400001E-01     S      1.072717E-01                                                                                             
   4.600001E-01     S      7.626966E-02                                                                                             
   4.800001E-01     S      4.283313E-02                                                                                             
   5.000001E-01     S      1.193522E-02                                                                                             
   5.200000E-01     S     -9.271138E-03                                                                                             
   5.400000E-01     S     -1.655531E-02                                                                                             
   5.600000E-01     S     -9.947259E-03                                                                                             
   5.800000E-01     S      1.053067E-02                                                                                             
   6.000000E-01     S      4.114959E-02                                                                                             
   6.199999E-01     S      7.463019E-02                                                                                             
   6.399999E-01     S      1.058075E-01                                                                                             
   6.599999E-01     S      1.289165E-01                                                                                             
   6.799999E-01     S      1.381097E-01                                                                                             
   6.999999E-01     S      1.328598E-01                                                                                             
   7.199998E-01     S      1.143742E-01                                                                                             
   7.399998E-01     S      8.475357E-02                                                                                             
   7.599998E-01     S      5.088473E-02                                                                                             
   7.799998E-01     S      1.945516E-02                                                                                             
   7.999998E-01     S     -4.963427E-03                                                                                             
1     TRUSS DYNAMIC ANALYSIS USING AUTOMATED MODAL SYNTHESIS                /    95 SUN SOLARIS NASTRAN    / MAY 17, 95 / PAGE    24
      NASTRAN DEMONSTRATION PROBLEM NO. D02-03-4A                                                                                   
0     SOLVE AND RECOVERY, RUN 4, PHASE 2, RF 9                                                                                      
      POINT-ID =       9
                                       D I S P L A C E M E N T   V E C T O R   (SOLUTION SET)
 
       TIME       TYPE          T1             T2             T3             R1             R2             R3
   0.0              S      0.0                                                                                                      
   2.000000E-02     S      4.369505E-03                                                                                             
   4.000000E-02     S     -3.728039E-03                                                                                             
   6.000000E-02     S     -4.933822E-03                                                                                             
   8.000000E-02     S      3.035272E-03                                                                                             
   9.999999E-02     S      5.384113E-03                                                                                             
   1.200000E-01     S     -2.292921E-03                                                                                             
   1.400000E-01     S     -5.698332E-03                                                                                             
   1.600000E-01     S      1.490979E-03                                                                                             
   1.800000E-01     S      5.882416E-03                                                                                             
   2.000000E-01     S     -6.330216E-04                                                                                             
   2.200000E-01     S     -5.957850E-03                                                                                             
   2.400000E-01     S     -2.510403E-04                                                                                             
   2.600000E-01     S      5.936128E-03                                                                                             
   2.800000E-01     S      1.117760E-03                                                                                             
   3.000000E-01     S     -5.805555E-03                                                                                             
   3.200000E-01     S     -1.936145E-03                                                                                             
   3.400000E-01     S      5.543554E-03                                                                                             
   3.600000E-01     S      2.701374E-03                                                                                             
   3.800000E-01     S     -5.142214E-03                                                                                             
   4.000000E-01     S     -8.726780E-02                                                                                             
   4.200000E-01     S     -6.869928E-02                                                                                             
   4.400001E-01     S     -6.734984E-02                                                                                             
   4.600001E-01     S     -8.608397E-02                                                                                             
   4.800001E-01     S     -9.016794E-02                                                                                             
   5.000001E-01     S     -7.161241E-02                                                                                             
   5.200000E-01     S     -6.522517E-02                                                                                             
   5.400000E-01     S     -8.291548E-02                                                                                             
   5.600000E-01     S     -9.143139E-02                                                                                             
   5.800000E-01     S     -7.531825E-02                                                                                             
   6.000000E-01     S     -6.454504E-02                                                                                             
   6.199999E-01     S     -7.870421E-02                                                                                             
   6.399999E-01     S     -9.186224E-02                                                                                             
   6.599999E-01     S     -7.964581E-02                                                                                             
   6.799999E-01     S     -6.432583E-02                                                                                             
   6.999999E-01     S     -7.469823E-02                                                                                             
   7.199998E-01     S     -9.156410E-02                                                                                             
   7.399998E-01     S     -8.319910E-02                                                                                             
   7.599998E-01     S     -6.548493E-02                                                                                             
   7.799998E-01     S     -7.137086E-02                                                                                             
   7.999998E-01     S     -8.951692E-02                                                                                             
1     TRUSS DYNAMIC ANALYSIS USING AUTOMATED MODAL SYNTHESIS                /    95 SUN SOLARIS NASTRAN    / MAY 17, 95 / PAGE    25
      NASTRAN DEMONSTRATION PROBLEM NO. D02-03-4A                                                                                   
0     SOLVE AND RECOVERY, RUN 4, PHASE 2, RF 9                                                                                      
      POINT-ID =      10
                                       D I S P L A C E M E N T   V E C T O R   (SOLUTION SET)
 
       TIME       TYPE          T1             T2             T3             R1             R2             R3
   0.0              S      0.0                                                                                                      
   2.000000E-02     S     -1.694718E-12                                                                                             
   4.000000E-02     S     -1.409229E-12                                                                                             
   6.000000E-02     S     -8.143664E-13                                                                                             
   8.000000E-02     S     -3.340990E-14                                                                                             
   9.999999E-02     S      7.247197E-13                                                                                             
   1.200000E-01     S      1.317135E-12                                                                                             
   1.400000E-01     S      1.669599E-12                                                                                             
   1.600000E-01     S      1.737536E-12                                                                                             
   1.800000E-01     S      1.473986E-12                                                                                             
   2.000000E-01     S      8.811805E-13                                                                                             
   2.200000E-01     S      1.177510E-13                                                                                             
   2.400000E-01     S     -6.137056E-13                                                                                             
   2.600000E-01     S     -1.230186E-12                                                                                             
   2.800000E-01     S     -1.661180E-12                                                                                             
   3.000000E-01     S     -1.772566E-12                                                                                             
   3.200000E-01     S     -1.506977E-12                                                                                             
   3.400000E-01     S     -9.445705E-13                                                                                             
   3.600000E-01     S     -2.322239E-13                                                                                             
   3.800000E-01     S      4.997236E-13                                                                                             
   4.000000E-01     S      1.517892E-11                                                                                             
   4.200000E-01     S      1.432760E-11                                                                                             
   4.400001E-01     S      1.179518E-11                                                                                             
   4.600001E-01     S      8.217086E-12                                                                                             
   4.800001E-01     S      4.448860E-12                                                                                             
   5.000001E-01     S      1.050695E-12                                                                                             
   5.200000E-01     S     -1.319877E-12                                                                                             
   5.400000E-01     S     -2.207586E-12                                                                                             
   5.600000E-01     S     -1.495822E-12                                                                                             
   5.800000E-01     S      8.661392E-13                                                                                             
   6.000000E-01     S      4.363312E-12                                                                                             
   6.199999E-01     S      8.081033E-12                                                                                             
   6.399999E-01     S      1.152080E-11                                                                                             
   6.599999E-01     S      1.417122E-11                                                                                             
   6.799999E-01     S      1.528793E-11                                                                                             
   6.999999E-01     S      1.464593E-11                                                                                             
   7.199998E-01     S      1.247990E-11                                                                                             
   7.399998E-01     S      9.196089E-12                                                                                             
   7.599998E-01     S      5.464461E-12                                                                                             
   7.799998E-01     S      1.885828E-12                                                                                             
   7.999998E-01     S     -9.344306E-13                                                                                             
1     TRUSS DYNAMIC ANALYSIS USING AUTOMATED MODAL SYNTHESIS                /    95 SUN SOLARIS NASTRAN    / MAY 17, 95 / PAGE    26
      NASTRAN DEMONSTRATION PROBLEM NO. D02-03-4A                                                                                   
0     SOLVE AND RECOVERY, RUN 4, PHASE 2, RF 9                                                                                      
      POINT-ID =      11
                                       D I S P L A C E M E N T   V E C T O R   (SOLUTION SET)
 
       TIME       TYPE          T1             T2             T3             R1             R2             R3
   0.0              S      0.0                                                                                                      
   2.000000E-02     S      2.978844E-04                                                                                             
   4.000000E-02     S     -4.977832E-04                                                                                             
   6.000000E-02     S      3.582857E-05                                                                                             
   8.000000E-02     S      4.746224E-04                                                                                             
   9.999999E-02     S     -3.549214E-04                                                                                             
   1.200000E-01     S     -2.372653E-04                                                                                             
   1.400000E-01     S      5.159435E-04                                                                                             
   1.600000E-01     S     -1.096871E-04                                                                                             
   1.800000E-01     S     -4.439891E-04                                                                                             
   2.000000E-01     S      4.101275E-04                                                                                             
   2.200000E-01     S      1.684166E-04                                                                                             
   2.400000E-01     S     -5.257452E-04                                                                                             
   2.600000E-01     S      1.871553E-04                                                                                             
   2.800000E-01     S      4.005707E-04                                                                                             
   3.000000E-01     S     -4.593534E-04                                                                                             
   3.200000E-01     S     -8.978851E-05                                                                                             
   3.400000E-01     S      5.209791E-04                                                                                             
   3.600000E-01     S     -2.636208E-04                                                                                             
   3.800000E-01     S     -3.422228E-04                                                                                             
   4.000000E-01     S      1.516309E-02                                                                                             
   4.200000E-01     S      2.670142E-02                                                                                             
   4.400001E-01     S      1.810911E-02                                                                                             
   4.600001E-01     S      1.234154E-02                                                                                             
   4.800001E-01     S      2.482062E-02                                                                                             
   5.000001E-01     S      2.219919E-02                                                                                             
   5.200000E-01     S      1.146381E-02                                                                                             
   5.400000E-01     S      2.132246E-02                                                                                             
   5.600000E-01     S      2.543631E-02                                                                                             
   5.800000E-01     S      1.277873E-02                                                                                             
   6.000000E-01     S      1.719839E-02                                                                                             
   6.199999E-01     S      2.690294E-02                                                                                             
   6.399999E-01     S      1.591370E-02                                                                                             
   6.599999E-01     S      1.361724E-02                                                                                             
   6.799999E-01     S      2.618333E-02                                                                                             
   6.999999E-01     S      1.998030E-02                                                                                             
   7.199998E-01     S      1.159397E-02                                                                                             
   7.399998E-01     S      2.348134E-02                                                                                             
   7.599998E-01     S      2.382607E-02                                                                                             
   7.799998E-01     S      1.170202E-02                                                                                             
   7.999998E-01     S      1.956268E-02                                                                                             
1     TRUSS DYNAMIC ANALYSIS USING AUTOMATED MODAL SYNTHESIS                /    95 SUN SOLARIS NASTRAN    / MAY 17, 95 / PAGE    27
      NASTRAN DEMONSTRATION PROBLEM NO. D02-03-4A                                                                                   
[...]
           107      M     -4.417263E-16                                                                                             
1     TRUSS DYNAMIC ANALYSIS USING AUTOMATED MODAL SYNTHESIS                /    95 SUN SOLARIS NASTRAN    / MAY 17, 95 / PAGE   488
      NASTRAN DEMONSTRATION PROBLEM NO. D02-03-4A                                SUBSTRUCTURE    MB                                 
0     SOLVE AND RECOVERY, RUN 4, PHASE 2, RF 9                                   COMPONENT       BBASIC                             
      TIME =  6.399999E-01
                                             D I S P L A C E M E N T   V E C T O R
 
      POINT ID.   TYPE          T1             T2             T3             R1             R2             R3
             1      G     -1.638073E-01   3.120855E-02   0.0            0.0            0.0            0.0                           
             2      G     -1.657290E-01  -6.552142E-14   0.0            0.0            0.0            0.0                           
             3      G     -1.638073E-01  -3.120855E-02   0.0            0.0            0.0            0.0                           
1     TRUSS DYNAMIC ANALYSIS USING AUTOMATED MODAL SYNTHESIS                /    95 SUN SOLARIS NASTRAN    / MAY 17, 95 / PAGE   489
      NASTRAN DEMONSTRATION PROBLEM NO. D02-03-4A                                SUBSTRUCTURE    MB                                 
0     SOLVE AND RECOVERY, RUN 4, PHASE 2, RF 9                                   COMPONENT       MB                                 
      TIME =  6.399999E-01
                                             D I S P L A C E M E N T   V E C T O R
 
      POINT ID.   TYPE          T1             T2             T3             R1             R2             R3
           101      M      3.667696E-02  -9.033277E-04   3.488309E-14   1.134082E-04  -3.400336E-05   5.382436E-06                  
           107      M     -1.291549E-15                                                                                             
1     TRUSS DYNAMIC ANALYSIS USING AUTOMATED MODAL SYNTHESIS                /    95 SUN SOLARIS NASTRAN    / MAY 17, 95 / PAGE   490
      NASTRAN DEMONSTRATION PROBLEM NO. D02-03-4A                                SUBSTRUCTURE    MB                                 
0     SOLVE AND RECOVERY, RUN 4, PHASE 2, RF 9                                   COMPONENT       BBASIC                             
      TIME =  6.599999E-01
                                             D I S P L A C E M E N T   V E C T O R
 
      POINT ID.   TYPE          T1             T2             T3             R1             R2             R3
             1      G     -4.537180E-02   7.528332E-03   0.0            0.0            0.0            0.0                           
             2      G     -4.705777E-02  -1.266143E-13   0.0            0.0            0.0            0.0                           
             3      G     -4.537180E-02  -7.528332E-03   0.0            0.0            0.0            0.0                           
1     TRUSS DYNAMIC ANALYSIS USING AUTOMATED MODAL SYNTHESIS                /    95 SUN SOLARIS NASTRAN    / MAY 17, 95 / PAGE   491
      NASTRAN DEMONSTRATION PROBLEM NO. D02-03-4A                                SUBSTRUCTURE    MB                                 
0     SOLVE AND RECOVERY, RUN 4, PHASE 2, RF 9                                   COMPONENT       MB                                 
      TIME =  6.599999E-01
                                             D I S P L A C E M E N T   V E C T O R
 
      POINT ID.   TYPE          T1             T2             T3             R1             R2             R3
           101      M      6.243106E-02  -1.119353E-03   6.741869E-14   1.335028E-04  -3.719988E-05   1.885575E-06                  
           107      M     -2.496785E-15                                                                                             
1     TRUSS DYNAMIC ANALYSIS USING AUTOMATED MODAL SYNTHESIS                /    95 SUN SOLARIS NASTRAN    / MAY 17, 95 / PAGE   492
      NASTRAN DEMONSTRATION PROBLEM NO. D02-03-4A                                SUBSTRUCTURE    MB                                 
0     SOLVE AND RECOVERY, RUN 4, PHASE 2, RF 9                                   COMPONENT       BBASIC                             
      TIME =  6.799999E-01
                                             D I S P L A C E M E N T   V E C T O R
 
      POINT ID.   TYPE          T1             T2             T3             R1             R2             R3
             1      G     -3.700558E-03  -1.679823E-03   0.0            0.0            0.0            0.0                           
             2      G     -5.316249E-03  -1.437578E-13   0.0            0.0            0.0            0.0                           
             3      G     -3.700558E-03   1.679823E-03   0.0            0.0            0.0            0.0                           
1     TRUSS DYNAMIC ANALYSIS USING AUTOMATED MODAL SYNTHESIS                /    95 SUN SOLARIS NASTRAN    / MAY 17, 95 / PAGE   493
      NASTRAN DEMONSTRATION PROBLEM NO. D02-03-4A                                SUBSTRUCTURE    MB                                 
0     SOLVE AND RECOVERY, RUN 4, PHASE 2, RF 9                                   COMPONENT       MB                                 
      TIME =  6.799999E-01
                                             D I S P L A C E M E N T   V E C T O R
 
      POINT ID.   TYPE          T1             T2             T3             R1             R2             R3
           101      M      7.852356E-02  -7.632566E-04   7.653881E-14   1.072532E-04  -2.874502E-05  -1.195425E-06                  
           107      M     -2.832800E-15                                                                                             
1     TRUSS DYNAMIC ANALYSIS USING AUTOMATED MODAL SYNTHESIS                /    95 SUN SOLARIS NASTRAN    / MAY 17, 95 / PAGE   494
      NASTRAN DEMONSTRATION PROBLEM NO. D02-03-4A                                SUBSTRUCTURE    MB                                 
0     SOLVE AND RECOVERY, RUN 4, PHASE 2, RF 9                                   COMPONENT       BBASIC                             
      TIME =  6.999999E-01
                                             D I S P L A C E M E N T   V E C T O R
 
      POINT ID.   TYPE          T1             T2             T3             R1             R2             R3
             1      G     -2.415224E-02   3.115468E-03   0.0            0.0            0.0            0.0                           
             2      G     -2.580528E-02  -1.250651E-13   0.0            0.0            0.0            0.0                           
             3      G     -2.415224E-02  -3.115468E-03   0.0            0.0            0.0            0.0                           
1     TRUSS DYNAMIC ANALYSIS USING AUTOMATED MODAL SYNTHESIS                /    95 SUN SOLARIS NASTRAN    / MAY 17, 95 / PAGE   495
      NASTRAN DEMONSTRATION PROBLEM NO. D02-03-4A                                SUBSTRUCTURE    MB                                 
0     SOLVE AND RECOVERY, RUN 4, PHASE 2, RF 9                                   COMPONENT       MB                                 
      TIME =  6.999999E-01
                                             D I S P L A C E M E N T   V E C T O R
 
      POINT ID.   TYPE          T1             T2             T3             R1             R2             R3
           101      M      6.898953E-02  -9.418462E-04   6.657629E-14   1.285673E-04  -3.585582E-05   1.461633E-06                  
           107      M     -2.464275E-15                                                                                             
1     TRUSS DYNAMIC ANALYSIS USING AUTOMATED MODAL SYNTHESIS                /    95 SUN SOLARIS NASTRAN    / MAY 17, 95 / PAGE   496
      NASTRAN DEMONSTRATION PROBLEM NO. D02-03-4A                                SUBSTRUCTURE    MB                                 
0     SOLVE AND RECOVERY, RUN 4, PHASE 2, RF 9                                   COMPONENT       BBASIC                             
      TIME =  7.199998E-01
                                             D I S P L A C E M E N T   V E C T O R
 
      POINT ID.   TYPE          T1             T2             T3             R1             R2             R3
             1      G     -1.187567E-01   2.253920E-02   0.0            0.0            0.0            0.0                           
             2      G     -1.205863E-01  -9.294520E-14   0.0            0.0            0.0            0.0                           
             3      G     -1.187567E-01  -2.253920E-02   0.0            0.0            0.0            0.0                           
1     TRUSS DYNAMIC ANALYSIS USING AUTOMATED MODAL SYNTHESIS                /    95 SUN SOLARIS NASTRAN    / MAY 17, 95 / PAGE   497
      NASTRAN DEMONSTRATION PROBLEM NO. D02-03-4A                                SUBSTRUCTURE    MB                                 
0     SOLVE AND RECOVERY, RUN 4, PHASE 2, RF 9                                   COMPONENT       MB                                 
      TIME =  7.199998E-01
                                             D I S P L A C E M E N T   V E C T O R
 
      POINT ID.   TYPE          T1             T2             T3             R1             R2             R3
           101      M      4.404890E-02  -1.131060E-03   4.949526E-14   1.301134E-04  -3.799698E-05   4.834679E-06                  
           107      M     -1.833624E-15                                                                                             
1     TRUSS DYNAMIC ANALYSIS USING AUTOMATED MODAL SYNTHESIS                /    95 SUN SOLARIS NASTRAN    / MAY 17, 95 / PAGE   498
      NASTRAN DEMONSTRATION PROBLEM NO. D02-03-4A                                SUBSTRUCTURE    MB                                 
0     SOLVE AND RECOVERY, RUN 4, PHASE 2, RF 9                                   COMPONENT       BBASIC                             
      TIME =  7.399998E-01
                                             D I S P L A C E M E N T   V E C T O R
 
      POINT ID.   TYPE          T1             T2             T3             R1             R2             R3
             1      G     -2.896703E-01   5.446753E-02   0.0            0.0            0.0            0.0                           
             2      G     -2.918324E-01  -3.678723E-14   0.0            0.0            0.0            0.0                           
             3      G     -2.896703E-01  -5.446753E-02   0.0            0.0            0.0            0.0                           
1     TRUSS DYNAMIC ANALYSIS USING AUTOMATED MODAL SYNTHESIS                /    95 SUN SOLARIS NASTRAN    / MAY 17, 95 / PAGE   499
      NASTRAN DEMONSTRATION PROBLEM NO. D02-03-4A                                SUBSTRUCTURE    MB                                 
0     SOLVE AND RECOVERY, RUN 4, PHASE 2, RF 9                                   COMPONENT       MB                                 
      TIME =  7.399998E-01
                                             D I S P L A C E M E N T   V E C T O R
 
      POINT ID.   TYPE          T1             T2             T3             R1             R2             R3
           101      M      2.108377E-02  -3.501006E-04   1.961404E-14   4.419318E-05  -1.381283E-05   2.518928E-06                  
           107      M     -7.259709E-16                                                                                             
1     TRUSS DYNAMIC ANALYSIS USING AUTOMATED MODAL SYNTHESIS                /    95 SUN SOLARIS NASTRAN    / MAY 17, 95 / PAGE   500
      NASTRAN DEMONSTRATION PROBLEM NO. D02-03-4A                                SUBSTRUCTURE    MB                                 
0     SOLVE AND RECOVERY, RUN 4, PHASE 2, RF 9                                   COMPONENT       BBASIC                             
      TIME =  7.599998E-01
                                             D I S P L A C E M E N T   V E C T O R
 
      POINT ID.   TYPE          T1             T2             T3             R1             R2             R3
             1      G     -4.887786E-01   9.096155E-02   0.0            0.0            0.0            0.0                           
             2      G     -4.913020E-01   1.357767E-14   0.0            0.0            0.0            0.0                           
             3      G     -4.887786E-01  -9.096155E-02   0.0            0.0            0.0            0.0                           
1     TRUSS DYNAMIC ANALYSIS USING AUTOMATED MODAL SYNTHESIS                /    95 SUN SOLARIS NASTRAN    / MAY 17, 95 / PAGE   501
      NASTRAN DEMONSTRATION PROBLEM NO. D02-03-4A                                SUBSTRUCTURE    MB                                 
0     SOLVE AND RECOVERY, RUN 4, PHASE 2, RF 9                                   COMPONENT       MB                                 
      TIME =  7.599998E-01
                                             D I S P L A C E M E N T   V E C T O R
 
      POINT ID.   TYPE          T1             T2             T3             R1             R2             R3
           101      M     -3.830981E-03   4.507588E-04  -7.171281E-15  -4.275948E-05   1.358872E-05  -3.444022E-06                  
           107      M      2.663723E-16                                                                                             
1     TRUSS DYNAMIC ANALYSIS USING AUTOMATED MODAL SYNTHESIS                /    95 SUN SOLARIS NASTRAN    / MAY 17, 95 / PAGE   502
      NASTRAN DEMONSTRATION PROBLEM NO. D02-03-4A                                SUBSTRUCTURE    MB                                 
0     SOLVE AND RECOVERY, RUN 4, PHASE 2, RF 9                                   COMPONENT       BBASIC                             
      TIME =  7.799998E-01
                                             D I S P L A C E M E N T   V E C T O R
 
      POINT ID.   TYPE          T1             T2             T3             R1             R2             R3
             1      G     -6.614697E-01   1.243436E-01   0.0            0.0            0.0            0.0                           
             2      G     -6.643022E-01   6.231484E-14   0.0            0.0            0.0            0.0                           
             3      G     -6.614697E-01  -1.243436E-01   0.0            0.0            0.0            0.0                           
1     TRUSS DYNAMIC ANALYSIS USING AUTOMATED MODAL SYNTHESIS                /    95 SUN SOLARIS NASTRAN    / MAY 17, 95 / PAGE   503
      NASTRAN DEMONSTRATION PROBLEM NO. D02-03-4A                                SUBSTRUCTURE    MB                                 
0     SOLVE AND RECOVERY, RUN 4, PHASE 2, RF 9                                   COMPONENT       MB                                 
      TIME =  7.799998E-01
                                             D I S P L A C E M E N T   V E C T O R
 
      POINT ID.   TYPE          T1             T2             T3             R1             R2             R3
           101      M     -3.711847E-02   5.408580E-04  -3.308820E-14  -7.678050E-05   2.368623E-05  -3.983683E-06                  
           107      M      1.224406E-15                                                                                             
1     TRUSS DYNAMIC ANALYSIS USING AUTOMATED MODAL SYNTHESIS                /    95 SUN SOLARIS NASTRAN    / MAY 17, 95 / PAGE   504
      NASTRAN DEMONSTRATION PROBLEM NO. D02-03-4A                                SUBSTRUCTURE    MB                                 
0     SOLVE AND RECOVERY, RUN 4, PHASE 2, RF 9                                   COMPONENT       BBASIC                             
      TIME =  7.999998E-01
                                             D I S P L A C E M E N T   V E C T O R
 
      POINT ID.   TYPE          T1             T2             T3             R1             R2             R3
             1      G     -7.862128E-01   1.497113E-01   0.0            0.0            0.0            0.0                           
             2      G     -7.893048E-01   1.268578E-13   0.0            0.0            0.0            0.0                           
             3      G     -7.862128E-01  -1.497113E-01   0.0            0.0            0.0            0.0                           
1     TRUSS DYNAMIC ANALYSIS USING AUTOMATED MODAL SYNTHESIS                /    95 SUN SOLARIS NASTRAN    / MAY 17, 95 / PAGE   505
      NASTRAN DEMONSTRATION PROBLEM NO. D02-03-4A                                SUBSTRUCTURE    MB                                 
0     SOLVE AND RECOVERY, RUN 4, PHASE 2, RF 9                                   COMPONENT       MB                                 
      TIME =  7.999998E-01
                                             D I S P L A C E M E N T   V E C T O R
 
      POINT ID.   TYPE          T1             T2             T3             R1             R2             R3
           101      M     -6.574744E-02   7.486821E-04  -6.745541E-14  -1.043594E-04   2.742406E-05   1.316383E-06                  
           107      M      2.497234E-15                                                                                             
1     TRUSS DYNAMIC ANALYSIS USING AUTOMATED MODAL SYNTHESIS                /    95 SUN SOLARIS NASTRAN    / MAY 17, 95 / PAGE   506
      NASTRAN DEMONSTRATION PROBLEM NO. D02-03-4A                                                                                   
0     SOLVE AND RECOVERY, RUN 4, PHASE 2, RF 9                                                                                      


                          S U B S T R U C T U R E   O P E R A T I N G   F I L E   T A B L E   O F   C O N T E N T S 

                                                    E  B  C  L  P  K  M  P  P  U  H  U  Q  S  P  P  L  L  G  P  L  K  B  P  H      
                                                    Q  G  S  O  L  M  M  V  O  P  O  V  V  O  A  O  O  M  I  H  A  4  M  H  L      
                                                    S  S  T  D  T  T  T  E  V  R  R  E  E  L  P  A  A  T  M  I  M  M  T  I  F      
     SUBSTRUCTURE                                   S  S  M  S  S  X  X  C  E  T  G  C  C  N  P  P  P  X  S  S  S  X  X  L  T      
     NO.   NAME    TYPE   SS   PS   LL   CS   HL    --------------------------------------------------------------------------------

       1  ABASIC     B     0    0    0    0    3    3  3     3     3  3  3  3  3  3  4     3              3  3  3            
       2  BBASIC     B     0    0    0    0    4    3  3     3     3  3  3  3  3  3  4     3              3  3  3            
       3  MA         M     0    0    1    4    5    3  3     3     3  3  3        3  4     3                                 
       4  MB         M     0    0    2    3    5    3  3     3     3  3  3        3  4     3                                 
       5  MCOMB      C     0    0    3    0    6    3  3     3  3  3  3  3  3  3  3  4     3              3  3  3            
       6  RTRUSS     M     0    0    5    0    0    3  3     3  3  3  3  3           4     3                                 


                                                   SIZE OF ITEM IS GIVEN IN POWERS OF TEN   (0 INDICATES DATA IS STORED IN PRIMARY)
0*** UNUSED SPACE ON SOF =   386048 WORDS.
                      OR =      377 BLOCKS.
                      OR =       77 PERCENT.
0*** HIGHEST BLOCK USED  =      111




                                        * * * END OF JOB * * *
1
 JOB TITLE =  TRUSS DYNAMIC ANALYSIS USING AUTOMATED MODAL SYNTHESIS             
 DATE:  5/17/95
 END TIME: 15:26:55
 TOTAL WALL CLOCK TIME      4 SEC.
 
