     NASTRAN FILES=PLT2                                                              






                                  ****
                                *      *
                               *        *
                               *  N A S T R A N
                               *        *
                                *      *
                                  ****


                             SUN COMPUTER SYSTEMS    
                                SOLARIS VERSION

                          SYSTEM RELEASE -  1995 ED.

                                DISTRIBUTED BY

         COMPUTER SOFTWARE MANAGEMENT AND INFORMATION CENTER (COSMIC)
                 UNIVERSITY OF GEORGIA, ATHENS, GEORGIA 30602
                 PHONE: (706)542-3265      FAX: (706)542-4807
1                                                                           /    95 SUN SOLARIS NASTRAN    / MAY 17, 95 / PAGE     2
                                                                                                                                    
0                                                                                                                                   
                                                                                                         
                                                                                                         
                         INSTALLATION CENTER USER INFORMATION GIVEN IN THIS SECTION                      
                                                                                                         
                                     *********************************************                       
                                     *                                           *                       
                                     *  PLEASE READ THE COMMENT IN DEMO PROBLEM  *                       
                                     *  D01002A ABOUT SYSTEM TIMING CONSTANTS    *                       
                                     *                                           *                       
                                     *********************************************                       
                                                                                                         
                         ===X=    TOP OF PAGE REQUEST IF 'X' IS REPLACED BY '='                          
                                                                                                         
1                                                                           /    95 SUN SOLARIS NASTRAN    / MAY 17, 95 / PAGE     3
                                                                                                                                    
0                                                                                                                                   
0*** USER INFORMATION MESSAGE 225, GINO TIME CONSTANTS ARE BEING COMPUTED
     (SEE NASINFO FILE FOR ELIMINATION OF THESE COMPUTATIONS)
1                                                                           /    95 SUN SOLARIS NASTRAN    / MAY 17, 95 / PAGE     4
                                                                                                                                    
0        N A S T R A N    E X E C U T I V E    C O N T R O L    D E C K    E C H O                                                  
0                                                                                                                                   
                                                                                                                                    
                                                                                                                                    
     ID    D03041A,NASTRAN                                                           
     APP   DISPLACEMENT                                                              
     SOL   3,0                                                                       
     TIME  30                                                                        
     CEND                                                                            


0*** USER INFORMATION MESSAGE, TURN DIAG 48 ON FOR NASTRAN RELEASE NEWS, DIAG DEFINITION, NEW DMAP
         MODULES AND NEW BULKDATA CARDS INFORMATION
1     ACOUSTIC CAVITY ANALYSIS                                              /    95 SUN SOLARIS NASTRAN    / MAY 17, 95 / PAGE     5
      NASTRAN DEMONSTRATION PROBLEM NO. D03-04-1A                                                                                   
0                                                                                                                                   
0                                        C A S E    C O N T R O L   D E C K   E C H O                                               
                 CARD                                                                                                               
                 COUNT                                                                                                              
                  1      TITLE    = ACOUSTIC CAVITY ANALYSIS                                             
                  2      SUBTITLE = NASTRAN DEMONSTRATION PROBLEM NO. D03-04-1A                          
                  3      SET  1 =    1 THRU  210                                                         
                  4      SET  2 =  101 THRU  131,  200 THRU  230,  300 THRU  321,  401 THRU  430,        
                  5                523 THRU  530,  624 THRU  630,  725 THRU  730,  825 THRU  830,        
                  6                926 THRU  930, 1026 THRU 1030                                         
                  7           METHOD   = 1                                                               
                  8           PRESSURE = 1                                                               
                  9           STRESS   = 2                                                               
                 10      PLOTID = NASTRAN DEMONSTRATION PROBLEM NO. D03-04-1A                            
                 11      OUTPUT(PLOT)                                                                    
                 12      PLOTTER NASTPLT                                                                 
                 13             SET 1 INCLUDE PLOTEL                                                     
                 14             MAXIMUM DEFORMATION 5.0                                                  
                 15             AXES MZ,Y,X                                                              
                 16             VIEW -20.0, 45.0, 0.0                                                    
                 17             FIND SCALE, ORIGIN 1, SET 1                                              
                 18      PTITLE = ROCKET MOTOR CAVITY USING PLOTEL ELEMENTS                              
                 19      PLOT SET 1, ORIGIN 1, LABEL GRID POINTS                                         
                 20      PTITLE = MODE SHAPES OF MOTOR CAVITY USING PLOTEL ELEMENTS                      
                 21      PLOT MODAL DEFORMATION, SET 1, ORIGIN 1, VECTOR R                               
                 22      BEGIN BULK                                                                      


                        (NO. OF UNSORTED BULK DATA CARDS READ =   276, INCLUDING   0 COMMENT CARDS)
0*** USER INFORMATION MESSAGE 207, BULK DATA DECK IS NOT SORTED. NASTRAN WILL RE-ORDER THE INPUT DECK.
1     ACOUSTIC CAVITY ANALYSIS                                              /    95 SUN SOLARIS NASTRAN    / MAY 17, 95 / PAGE     6
      NASTRAN DEMONSTRATION PROBLEM NO. D03-04-1A                                                                                   
0                                                                                                                                   
0                                                 S O R T E D   B U L K    D A T A    E C H O                                       
                     CARD                                                                                                           
                     COUNT        ---1--- +++2+++ ---3--- +++4+++ ---5--- +++6+++ ---7--- +++8+++ ---9--- +++10+++                  
                    1-        AXSLOT  .1143-6 20.58   0       4.      6                                       
                    2-        CAXIF2  101     11      12                                                      
                    3-        CAXIF2  102     12      19                                                      
                    4-        CAXIF2  103     19      26                                                      
                    5-        CAXIF2  104     26      32                                                      
                    6-        CAXIF2  107     32      37                                                      
                    7-        CAXIF2  108     37      41                                                      
                    8-        CAXIF2  109     41      45                                                      
                    9-        CAXIF2  110     45      49                                                      
                   10-        CAXIF2  111     49      53                                                      
                   11-        CAXIF2  112     53      57                                                      
                   12-        CAXIF2  113     57      61                                                      
                   13-        CAXIF2  114     61      65                                                      
                   14-        CAXIF2  115     65      69                                                      
                   15-        CAXIF2  116     69      73                                                      
                   16-        CAXIF2  117     73      77                                                      
                   17-        CAXIF2  119     77      81                                                      
                   18-        CAXIF2  120     81      85                                                      
                   19-        CAXIF2  121     85      91                                                      
                   20-        CAXIF2  123     91      97                                                      
                   21-        CAXIF2  124     97      104                                                     
                   22-        CAXIF2  125     104     112                                                     
                   23-        CAXIF2  126     112     122                                                     
                   24-        CAXIF2  127     122     142                                                     
                   25-        CAXIF2  128     142     162                                                     
                   26-        CAXIF2  129     162     182                                                     
                   27-        CAXIF2  130     182     202                                                     
                   28-        CAXIF2  131     202     201                                                     
                   29-        CAXIF3  200     12      19      13                                              
                   30-        CAXIF3  201     13      19      20                                              
                   31-        CAXIF3  202     19      26      20                                              
                   32-        CAXIF3  203     20      26      27                                              
                   33-        CAXIF3  204     26      32      27                                              
                   34-        CAXIF3  205     27      32      33                                              
                   35-        CAXIF3  218     77      82      78                                              
                   36-        CAXIF3  219     77      81      82                                              
                   37-        CAXIF3  221     85      91      86                                              
                   38-        CAXIF3  222     86      91      92                                              
                   39-        CAXIF3  300     13      20      14                                              
                   40-        CAXIF3  301     14      20      21                                              
                   41-        CAXIF3  302     20      27      21                                              
                   42-        CAXIF3  303     21      27      28                                              
                   43-        CAXIF3  304     27      33      28                                              
                   44-        CAXIF3  305     28      33      34                                              
                   45-        CAXIF3  306     33      38      34                                              
                   46-        CAXIF3  307     34      38      39                                              
                   47-        CAXIF3  318     78      83      79                                              
1     ACOUSTIC CAVITY ANALYSIS                                              /    95 SUN SOLARIS NASTRAN    / MAY 17, 95 / PAGE     7
      NASTRAN DEMONSTRATION PROBLEM NO. D03-04-1A                                                                                   

                                                                                                                                    

                                                  S O R T E D   B U L K    D A T A    E C H O                                       
                     CARD                                                                                                           
                     COUNT        ---1--- +++2+++ ---3--- +++4+++ ---5--- +++6+++ ---7--- +++8+++ ---9--- +++10+++                  
                   48-        CAXIF3  319     78      82      83                                              
                   49-        CAXIF3  321     86      92      87                                              
                   50-        CAXIF3  401     1       2       3                                               
                   51-        CAXIF3  408     28      34      29                                              
                   52-        CAXIF3  410     34      39      35                                              
                   53-        CAXIF4  207     32      37      38      33                                      
                   54-        CAXIF4  208     37      41      42      38                                      
                   55-        CAXIF4  209     41      45      46      42                                      
                   56-        CAXIF4  210     45      49      50      46                                      
                   57-        CAXIF4  211     49      53      54      50                                      
                   58-        CAXIF4  212     53      57      58      54                                      
                   59-        CAXIF4  213     57      61      62      58                                      
                   60-        CAXIF4  214     61      65      66      62                                      
                   61-        CAXIF4  215     65      69      70      66                                      
                   62-        CAXIF4  216     69      73      74      70                                      
                   63-        CAXIF4  217     73      77      78      74                                      
                   64-        CAXIF4  220     81      85      86      82                                      
                   65-        CAXIF4  223     91      97      98      92                                      
                   66-        CAXIF4  224     97      104     105     98                                      
                   67-        CAXIF4  225     104     112     113     105                                     
                   68-        CAXIF4  226     112     122     123     113                                     
                   69-        CAXIF4  227     122     142     143     123                                     
                   70-        CAXIF4  228     142     162     163     143                                     
                   71-        CAXIF4  229     162     182     183     163                                     
                   72-        CAXIF4  230     182     202     203     183                                     
                   73-        CAXIF4  308     38      42      43      39                                      
                   74-        CAXIF4  309     42      46      47      43                                      
                   75-        CAXIF4  310     46      50      51      47                                      
                   76-        CAXIF4  311     50      54      55      51                                      
                   77-        CAXIF4  312     54      58      59      55                                      
                   78-        CAXIF4  313     58      62      63      59                                      
                   79-        CAXIF4  314     62      66      67      63                                      
                   80-        CAXIF4  315     66      70      71      67                                      
                   81-        CAXIF4  316     70      74      75      71                                      
                   82-        CAXIF4  317     74      78      79      75                                      
                   83-        CAXIF4  320     82      86      87      83                                      
                   84-        CAXIF4  402     2       4       5       3                                       
                   85-        CAXIF4  403     4       6       7       5                                       
                   86-        CAXIF4  404     6       8       9       7                                       
                   87-        CAXIF4  405     8       16      17      9                                       
                   88-        CAXIF4  406     16      23      24      17                                      
                   89-        CAXIF4  407     23      29      30      24                                      
                   90-        CAXIF4  409     29      34      35      30                                      
                   91-        CSLOT3  422     89      94      95                                              
                   92-        CSLOT3  523     95      101     102                                             
                   93-        CSLOT3  624     102     109     110                                             
                   94-        CSLOT3  725     110     118     119                                             
1     ACOUSTIC CAVITY ANALYSIS                                              /    95 SUN SOLARIS NASTRAN    / MAY 17, 95 / PAGE     8
      NASTRAN DEMONSTRATION PROBLEM NO. D03-04-1A                                                                                   

                                                                                                                                    

                                                  S O R T E D   B U L K    D A T A    E C H O                                       
                     CARD                                                                                                           
                     COUNT        ---1--- +++2+++ ---3--- +++4+++ ---5--- +++6+++ ---7--- +++8+++ ---9--- +++10+++                  
                   95-        CSLOT3  825     119     129     120                                             
                   96-        CSLOT3  826     120     129     130                                             
                   97-        CSLOT3  926     120     130     131                                             
                   98-        CSLOT3  930     190     210     191                                             
                   99-        CSLOT3  1026    131     151     132                                             
                  100-        CSLOT3  1027    132     151     152                                             
                  101-        CSLOT3  1029    171     192     172                                             
                  102-        CSLOT3  1030    171     191     192                                             
                  103-        CSLOT4  423     94      100     101     95                                      
                  104-        CSLOT4  424     100     107     108     101                                     
                  105-        CSLOT4  425     107     115     116     108                                     
                  106-        CSLOT4  426     115     125     126     116                                     
                  107-        CSLOT4  427     125     145     146     126                                     
                  108-        CSLOT4  428     145     165     166     146                                     
                  109-        CSLOT4  429     165     185     186     166                                     
                  110-        CSLOT4  430     185     205     206     186                                     
                  111-        CSLOT4  524     101     108     109     102                                     
                  112-        CSLOT4  525     108     116     117     109                                     
                  113-        CSLOT4  526     116     126     127     117                                     
                  114-        CSLOT4  527     126     146     147     127                                     
                  115-        CSLOT4  528     146     166     167     147                                     
                  116-        CSLOT4  529     166     186     187     167                                     
                  117-        CSLOT4  530     186     206     207     187                                     
                  118-        CSLOT4  625     109     117     118     110                                     
                  119-        CSLOT4  626     117     127     128     118                                     
                  120-        CSLOT4  627     127     147     148     128                                     
                  121-        CSLOT4  628     147     167     168     148                                     
                  122-        CSLOT4  629     167     187     188     168                                     
                  123-        CSLOT4  630     187     207     208     188                                     
                  124-        CSLOT4  726     118     128     129     119                                     
                  125-        CSLOT4  727     128     148     149     129                                     
                  126-        CSLOT4  728     148     168     169     149                                     
                  127-        CSLOT4  729     168     188     189     169                                     
                  128-        CSLOT4  730     188     208     209     189                                     
                  129-        CSLOT4  827     129     149     150     130                                     
                  130-        CSLOT4  828     149     169     170     150                                     
                  131-        CSLOT4  829     169     189     190     170                                     
                  132-        CSLOT4  830     189     209     210     190                                     
                  133-        CSLOT4  927     130     150     151     131                                     
                  134-        CSLOT4  928     150     170     171     151                                     
                  135-        CSLOT4  929     170     190     191     171                                     
                  136-        CSLOT4  1028    151     171     172     152                                     
                  137-        EIGR    1       INV     100.0   500.0   6       7                       +EIG1   
                  138-        +EIG1   MAX                                                                     
                  139-        GRID    500             .0      65.25                   123456                  
                  140-        GRID    501             .0      11.4                    123456                  
                  141-        GRIDF   1       10.                                                             
1     ACOUSTIC CAVITY ANALYSIS                                              /    95 SUN SOLARIS NASTRAN    / MAY 17, 95 / PAGE     9
      NASTRAN DEMONSTRATION PROBLEM NO. D03-04-1A                                                                                   

                                                                                                                                    

                                                  S O R T E D   B U L K    D A T A    E C H O                                       
                     CARD                                                                                                           
                     COUNT        ---1--- +++2+++ ---3--- +++4+++ ---5--- +++6+++ ---7--- +++8+++ ---9--- +++10+++                  
                  142-        GRIDF   2       9.15    1.8                                                     
                  143-        GRIDF   3       10.6    2.6                                                     
                  144-        GRIDF   4       8.1     4.                                                      
                  145-        GRIDF   5       9.85    4.65                                                    
                  146-        GRIDF   6       7.3     6.2                                                     
                  147-        GRIDF   7       9.      6.8                                                     
                  148-        GRIDF   8       6.55    8.6                                                     
                  149-        GRIDF   9       8.6     8.9                                                     
                  150-        GRIDF   11      .7      11.4                                                    
                  151-        GRIDF   12      .7      12.                                                     
                  152-        GRIDF   13      1.8     12.                                                     
                  153-        GRIDF   14      3.3     12.1                                                    
                  154-        GRIDF   16      5.9     10.8                                                    
                  155-        GRIDF   17      8.3     10.6                                                    
                  156-        GRIDF   19      1.      13.3                                                    
                  157-        GRIDF   20      2.5     13.3                                                    
                  158-        GRIDF   21      3.6     13.9                                                    
                  159-        GRIDF   23      6.07    13.                                                     
                  160-        GRIDF   24      8.3     13.                                                     
                  161-        GRIDF   26      1.3     15.                                                     
                  162-        GRIDF   27      2.8     15.                                                     
                  163-        GRIDF   28      4.8     15.                                                     
                  164-        GRIDF   29      6.      14.8                                                    
                  165-        GRIDF   30      8.3     15.25                                                   
                  166-        GRIDF   32      1.6     16.7                                                    
                  167-        GRIDF   33      4.      16.7                                                    
                  168-        GRIDF   34      5.5     17.2                                                    
                  169-        GRIDF   35      6.9     17.7                                                    
                  170-        GRIDF   37      2.      18.82                                                   
                  171-        GRIDF   38      4.4     18.82                                                   
                  172-        GRIDF   39      6.89    18.82                                                   
                  173-        GRIDF   41      2.      21.                                                     
                  174-        GRIDF   42      4.4     21.                                                     
                  175-        GRIDF   43      6.875   21.                                                     
                  176-        GRIDF   45      2.      23.2                                                    
                  177-        GRIDF   46      4.4     23.2                                                    
                  178-        GRIDF   47      6.85    23.2                                                    
                  179-        GRIDF   49      2.      25.4                                                    
                  180-        GRIDF   50      4.4     25.4                                                    
                  181-        GRIDF   51      6.825   25.4                                                    
                  182-        GRIDF   53      2.      27.6                                                    
                  183-        GRIDF   54      4.4     27.6                                                    
                  184-        GRIDF   55      6.8     27.6                                                    
                  185-        GRIDF   57      2.      29.8                                                    
                  186-        GRIDF   58      4.4     29.8                                                    
                  187-        GRIDF   59      6.775   29.8                                                    
                  188-        GRIDF   61      2.      32.                                                     
1     ACOUSTIC CAVITY ANALYSIS                                              /    95 SUN SOLARIS NASTRAN    / MAY 17, 95 / PAGE    10
      NASTRAN DEMONSTRATION PROBLEM NO. D03-04-1A                                                                                   

                                                                                                                                    

                                                  S O R T E D   B U L K    D A T A    E C H O                                       
                     CARD                                                                                                           
                     COUNT        ---1--- +++2+++ ---3--- +++4+++ ---5--- +++6+++ ---7--- +++8+++ ---9--- +++10+++                  
                  189-        GRIDF   62      4.4     32.                                                     
                  190-        GRIDF   63      6.75    32.                                                     
                  191-        GRIDF   65      2.      34.2                                                    
                  192-        GRIDF   66      4.4     34.2                                                    
                  193-        GRIDF   67      6.725   34.2                                                    
                  194-        GRIDF   69      2.      36.4                                                    
                  195-        GRIDF   70      4.4     36.4                                                    
                  196-        GRIDF   71      6.7     36.4                                                    
                  197-        GRIDF   73      2.      38.6                                                    
                  198-        GRIDF   74      4.4     38.6                                                    
                  199-        GRIDF   75      6.675   38.6                                                    
                  200-        GRIDF   77      2.      40.3                                                    
                  201-        GRIDF   78      4.4     40.3                                                    
                  202-        GRIDF   79      6.55    40.3                                                    
                  203-        GRIDF   81      2.      41.85                                                   
                  204-        GRIDF   82      3.4     41.85                                                   
                  205-        GRIDF   83      4.6     41.85                                                   
                  206-        GRIDF   85      2.      43.85                                                   
                  207-        GRIDF   86      3.4     43.85                                                   
                  208-        GRIDF   91      2.      46.25                                                   
                  209-        GRIDF   97      2.      48.5                                                    
                  210-        GRIDF   104     2.      50.8                                                    
                  211-        GRIDF   112     2.      52.8                                                    
                  212-        GRIDF   122     2.      55.                                                     
                  213-        GRIDF   142     2.      57.2                                                    
                  214-        GRIDF   162     2.      59.4                                                    
                  215-        GRIDF   182     2.      61.6                                                    
                  216-        GRIDF   201     2.5     65.25                                                   
                  217-        GRIDF   202     2.5     63.7                                                    
                  218-        GRIDS   89      4.6     43.85           87                                      
                  219-        GRIDS   94      4.3     46.25           92                                      
                  220-        GRIDS   95      6.9     46.25                                                   
                  221-        GRIDS   100     4.3     48.5            98                                      
                  222-        GRIDS   101     6.5     48.5                                                    
                  223-        GRIDS   102     9.04    48.5                                                    
                  224-        GRIDS   107     4.3     50.8    3.541   105                                     
                  225-        GRIDS   108     6.5     50.8    3.528                                           
                  226-        GRIDS   109     8.7     50.8    3.514                                           
                  227-        GRIDS   110     11.25   50.8    3.497                                           
                  228-        GRIDS   115     4.3     52.8    2.991   113                                     
                  229-        GRIDS   116     6.5     52.8    2.961                                           
                  230-        GRIDS   117     8.7     52.8    2.93                                            
                  231-        GRIDS   118     10.9    52.8    2.9                                             
                  232-        GRIDS   119     13.6    52.8    2.863                                           
                  233-        GRIDS   120     15.3    53.9    2.84                                            
                  234-        GRIDS   125     4.3     55.     2.991   123                                     
                  235-        GRIDS   126     6.5     55.     2.961                                           
1     ACOUSTIC CAVITY ANALYSIS                                              /    95 SUN SOLARIS NASTRAN    / MAY 17, 95 / PAGE    11
      NASTRAN DEMONSTRATION PROBLEM NO. D03-04-1A                                                                                   

                                                                                                                                    

                                                  S O R T E D   B U L K    D A T A    E C H O                                       
                     CARD                                                                                                           
                     COUNT        ---1--- +++2+++ ---3--- +++4+++ ---5--- +++6+++ ---7--- +++8+++ ---9--- +++10+++                  
                  236-        GRIDS   127     8.7     55.     2.93                                            
                  237-        GRIDS   128     10.9    55.     2.9                                             
                  238-        GRIDS   129     13.1    55.     2.87                                            
                  239-        GRIDS   130     15.3    55.     2.84                                            
                  240-        GRIDS   131     17.5    55.05   2.81                                            
                  241-        GRIDS   132     18.65   56.     2.794                                           
                  242-        GRIDS   145     4.3     57.2    2.991   143                                     
                  243-        GRIDS   146     6.5     57.2    2.961                                           
                  244-        GRIDS   147     8.7     57.2    2.93                                            
                  245-        GRIDS   148     10.9    57.2    2.9                                             
                  246-        GRIDS   149     13.1    57.2    2.87                                            
                  247-        GRIDS   150     15.3    57.2    2.84                                            
                  248-        GRIDS   151     17.5    57.2    2.81                                            
                  249-        GRIDS   152     19.35   57.2    2.784                                           
                  250-        GRIDS   165     4.3     59.4    2.991   163                                     
                  251-        GRIDS   166     6.5     59.4    2.961                                           
                  252-        GRIDS   167     8.7     59.4    2.93                                            
                  253-        GRIDS   168     10.9    59.4    2.9                                             
                  254-        GRIDS   169     13.1    59.4    2.87                                            
                  255-        GRIDS   170     15.3    59.4    2.84                                            
                  256-        GRIDS   171     17.5    59.4    2.81                                            
                  257-        GRIDS   172     19.35   59.4    2.784                                           
                  258-        GRIDS   185     4.3     61.6    2.991   183                                     
                  259-        GRIDS   186     6.5     61.6    2.961                                           
                  260-        GRIDS   187     8.7     61.6    2.93                                            
                  261-        GRIDS   188     10.9    61.6    2.9                                             
                  262-        GRIDS   189     13.1    61.6    2.87                                            
                  263-        GRIDS   190     15.3    61.6    2.84                                            
                  264-        GRIDS   191     17.5    61.5    2.81                                            
                  265-        GRIDS   192     18.5    60.65   2.795                                           
                  266-        GRIDS   205     4.3     63.65   2.991   203                                     
                  267-        GRIDS   206     6.5     63.6    2.961                                           
                  268-        GRIDS   207     8.7     63.55   2.93                                            
                  269-        GRIDS   208     10.9    63.5    2.9                                             
                  270-        GRIDS   209     13.1    63.3    2.87                                            
                  271-        GRIDS   210     15.3    62.63   2.84                                            
                  272-        PLOTEL  1       201     500             2       500     501                     
                  273-        PLOTEL  3       501     11                                                      
                  274-        SLBDY                   89      94      100     107     115     125     +BDY    
                  275-        +BDY    145     165     185     205                                             
                  276-        SUPORT  1       1                                                               
                              ENDDATA
1     ACOUSTIC CAVITY ANALYSIS                                              /    95 SUN SOLARIS NASTRAN    / MAY 17, 95 / PAGE    12
      NASTRAN DEMONSTRATION PROBLEM NO. D03-04-1A                                                                                   
0                                                                                                                                   
0*** USER INFORMATION MESSAGES FROM RESEQUENCING PROCESSOR - BANDIT     (CRI= 1,  MTH= 3,  MPC= 0,  DEP=-1,  PCH=-1)

                               BEFORE RESEQUENCING - - -
                                        BANDWIDTH           13
                                        PROFILE           1009
                                        MAX WAVEFRONT       12
                                        AVG WAVEFRONT    7.156
                                        RMS WAVEFRONT    7.796
                                        RMS BANDWIDTH    7.934

                               AFTER RESEQUENCING BY GIBBS-POOLE-STOCKMEYER (GPS) ALGORITHM - - -
                                        BANDWIDTH           14
                                        PROFILE           1002
                                        MAX WAVEFRONT       13
                                        AVG WAVEFRONT    7.106
                                        RMS WAVEFRONT    7.727
                                        RMS BANDWIDTH    7.919


                                                     *** BANDIT SUMMARY ***

                                                                        BEFORE     AFTER
                                        BANDWIDTH (B)                       13        14
                                        PROFILE (P)                       1009      1002
                                        MAXIMUM WAVEFRONT (C-MAX)           12        13
                                        AVERAGE WAVEFRONT (C-AVG)        7.156     7.106
                                        RMS WAVEFRONT (C-RMS)            7.796     7.727
                                        RMS BANDWITCH (B-RMS)            7.934     7.919
                                        NUMBER OF GRID POINTS (N)                    143
                                        NUMBER OF ELEMENTS (NON-RIGID)               145
                                        NUMBER OF RIGID ELEMENTS PROCESSED*            0
                                        NUMBER OF MPC  EQUATIONS PROCESSED*            0
                                        NUMBER OF COMPONENTS                           1
                                        MAXIMUM NODAL DEGREE                           8
                                        MINIMUM NODAL DEGREE                           1
                                        NUMBER OF UNIQUE EDGES                       401
                                        MATRIX DENSITY, PERCENT                    4.743
                                        NUMBER OF POINTS OF ZERO DEGREE                0
                                        BANDIT OPEN CORE                         1998969
                                        CRITERION*                         RMS WAVEFRONT
                                        METHOD USED*                                 GPS
                                        NO. OF NON-ACTIVE GRID POINTS                  2
                                        NO. OF SEQGP CARDS GENERATED                  36

                               (* THESE DEFAULT OPTIONS CAN BE OVERRIDDEN BY THE NASTRAN CARD)
1     ACOUSTIC CAVITY ANALYSIS                                              /    95 SUN SOLARIS NASTRAN    / MAY 17, 95 / PAGE    13
      NASTRAN DEMONSTRATION PROBLEM NO. D03-04-1A                                                                                   
0                                                                                                                                   


                                   S Y S T E M  G E N E R A T E D  S E Q G P  C A R D S

                         SEQGP          1     141       2     139       3     140       4     137
                         SEQGP          5     138       6     135       7     136       8     133
                         SEQGP          9     134      11     132      12     127      13     128
                         SEQGP         14     129      16     130      17     131      19     122
                         SEQGP         20     123      21     124      23     125      24     126
                         SEQGP         26     117      27     118      28     119      29     121
                         SEQGP         30     120      32     113      33     114      34     115
                         SEQGP         35     116      37     110      38     111      39     112
                         SEQGP         41     107      42     108      43     109      45     104
                         SEQGP         46     105      47     106      49     101      50     102
                         SEQGP         51     103      53      98      54      99      55     100
                         SEQGP         57      95      58      96      59      97      61      92
                         SEQGP         62      93      63      94      65      89      66      90
                         SEQGP         67      91      69      86      70      87      71      88
                         SEQGP         73      83      74      84      75      85      77      80
                         SEQGP         78      81      79      82      81      77      82      78
                         SEQGP         83      79      85      74      86      75      87      76
                         SEQGP         89      73      91      71      92      72      94      69
                         SEQGP         95      70      97      67      98      68     100      64
                         SEQGP        101      65     102      66     104      62     105      63
                         SEQGP        107      58     108      59     109      60     110      61
                         SEQGP        112      56     113      57     115      51     116      52
                         SEQGP        117      53     118      54     119      55     120      48
                         SEQGP        122      49     123      50     125      43     126      44
                         SEQGP        127      45     128      46     129      47     130      40
                         SEQGP        131      39     132      30     142      41     143      42
                         SEQGP        145      33     146      34     147      35     148      36
                         SEQGP        149      37     150      38     151      29     152      19
                         SEQGP        162      31     163      32     165      22     166      23
                         SEQGP        167      24     168      25     169      26     170      27
                         SEQGP        171      28     172      18     182      20     183      21
                         SEQGP        185      10     186      11     187      12     188      13
                         SEQGP        189      14     190      15     191      16     192      17
                         SEQGP        201       1     202       8     203       9     205       2
                         SEQGP        206       3     207       4     208       5     209       6
                         SEQGP        210       7     500     142     501     143
0         **NO ERRORS FOUND - EXECUTE NASTRAN PROGRAM**
0*** USER INFORMATION MESSAGE, PLOT FILE GOES TO PLT2
1     ACOUSTIC CAVITY ANALYSIS                                              /    95 SUN SOLARIS NASTRAN    / MAY 17, 95 / PAGE    14
      NASTRAN DEMONSTRATION PROBLEM NO. D03-04-1A                                                                                   
0                                                                                                                                   
                                                  MESSAGES FROM THE PLOT MODULE                                                   





 P L O T T E R    D A T A                                                                                                           
                                                                                                                                    
          THE FOLLOWING PLOTS ARE FOR A NASTPLT MICROFILM PLOTTER WITHOUT TYPING CAPABILITY                                         
                                                                                                                                    
          AN END-OF-FILE MARK FOLLOWS THE LAST PLOT                                                                                 
                                                                                                                                    
          THE FIRST COMMAND FOR EACH PLOT CONTAINS THE PLOT NUMBER                                                                  
                                                                                                                                    
          CSCALE =  1.00                                                                                                            
                                                                                                                                    
          THE FOLLOWING PLOTS ARE REQUESTED ON PAPER ONLY                                                                           
                                                                                                                                    




 E N G I N E E R I N G    D A T A                                                                                                   
                                                                                                                                    
          ORTHOGRAPHIC PROJECTION                                                                                                   
          ROTATIONS (DEGREES) - GAMMA = -20.00, BETA =  45.00, ALPHA =   0.00,  AXES = -Z,+Y,+X, SYMMETRIC                          
          SCALE (OBJECT-TO-PLOT SIZE) = 8.275312E-02                                                                                
                                                                                                                                    
          ORIGIN       1   -   X0 = -7.166634E-01, Y0 = -0.396984E+01     (INCHES)                                                  




                                                  PLOT MODULE MESSAGES CONTINUE                                                     
                                                                                                                                    
                                                 PLOT        1  UNDEFORMED SHAPE                                                    
                                                 ORIGIN      1  USED IN THIS PLOT                                                   
1     ACOUSTIC CAVITY ANALYSIS                                              /    95 SUN SOLARIS NASTRAN    / MAY 17, 95 / PAGE    15
      NASTRAN DEMONSTRATION PROBLEM NO. D03-04-1A                                                                                   

                                                                                                                                    




0*** USER WARNING MESSAGE 2015, EITHER NO ELEMENTS CONNECTED TO EXTERNAL GRID POINT      500
     OR IT IS CONNECTED TO A RIGID ELEMENT OR A GENERAL ELEMENT.
0*** USER WARNING MESSAGE 2015, EITHER NO ELEMENTS CONNECTED TO EXTERNAL GRID POINT      501
     OR IT IS CONNECTED TO A RIGID ELEMENT OR A GENERAL ELEMENT.
0*** USER INFORMATION MESSAGE 238, TURN DIAG 38 ON FOR ADDITIONAL ELEMENT PROCESSING INFORMATION

0*** USER INFORMATION MESSAGE 3113,
     EMG MODULE PROCESSING DOUBLE PRECISION AXIF2    ELEMENTS (ELEMENT TYPE  47) STARTING WITH ID      101
0*** USER INFORMATION MESSAGE 3113,
     EMG MODULE PROCESSING DOUBLE PRECISION AXIF3    ELEMENTS (ELEMENT TYPE  48) STARTING WITH ID      200
0*** USER INFORMATION MESSAGE 3113,
     EMG MODULE PROCESSING DOUBLE PRECISION AXIF4    ELEMENTS (ELEMENT TYPE  49) STARTING WITH ID      207
0*** USER INFORMATION MESSAGE 3113,
     EMG MODULE PROCESSING DOUBLE PRECISION ELAS2    ELEMENTS (ELEMENT TYPE  12) STARTING WITH ID 10000001
0*** USER INFORMATION MESSAGE 3113,
     EMG MODULE PROCESSING DOUBLE PRECISION SLOT3    ELEMENTS (ELEMENT TYPE  50) STARTING WITH ID      422
0*** USER INFORMATION MESSAGE 3113,
     EMG MODULE PROCESSING DOUBLE PRECISION SLOT4    ELEMENTS (ELEMENT TYPE  51) STARTING WITH ID      423
0*** USER INFORMATION MESSAGE 3035
     FOR SUBCASE NUMBER     0, EPSILON SUB E =   7.8045319E-15
                        4 ROOTS BELOW   5.132194E+06
                        5 ROOTS BELOW   5.948582E+06
                        3 ROOTS BELOW   3.804033E+06
                        6 ROOTS BELOW   7.966939E+06
                        2 ROOTS BELOW   1.569941E+06
                        1 ROOTS BELOW   3.199454E+05
1     ACOUSTIC CAVITY ANALYSIS                                              /    95 SUN SOLARIS NASTRAN    / MAY 17, 95 / PAGE    16
      NASTRAN DEMONSTRATION PROBLEM NO. D03-04-1A                                                                                   
0                                                                                                                                   
 
 
                              E I G E N V A L U E   A N A L Y S I S   S U M M A R Y     (INVERSE POWER METHOD)
0
0                                       NUMBER OF EIGENVALUES EXTRACTED  . . . . . .         7
0                                       NUMBER OF STARTING POINTS USED . . . . . . .         1
0                                       NUMBER OF STARTING POINT MOVES . . . . . . .         0
0                                       NUMBER OF TRIANGULAR DECOMPOSITIONS  . . . .         6
0                                       TOTAL NUMBER OF VECTOR ITERATIONS  . . . . .        38

0                                       REASON FOR TERMINATION . . . . . . . . . . .         7*

0                                       LARGEST OFF-DIAGONAL MODAL MASS TERM . . . .  0.00E+00
0                                                                              . . .         0
                                                  MODE PAIR . . . . . . . . . .
                                                                               . . .         0
0                                       NUMBER OF OFF-DIAGONAL MODAL MASS
                                             TERMS FAILING CRITERION . . . . . . . .         0

0                                       (* 1 OR MORE ROOT OUTSIDE FR.RANGE.
                                         SEE NASTRAN U.M. VOL II, SECTION 2.3.3)
1     ACOUSTIC CAVITY ANALYSIS                                              /    95 SUN SOLARIS NASTRAN    / MAY 17, 95 / PAGE    17
      NASTRAN DEMONSTRATION PROBLEM NO. D03-04-1A                                                                                   
0                                                                                                                                   
 
                                              R E A L   E I G E N V A L U E S

   MODE    EXTRACTION       EIGENVALUE            RADIAN              CYCLIC           GENERALIZED         GENERALIZED
    NO.       ORDER                              FREQUENCY           FREQUENCY            MASS              STIFFNESS


                                     ****************************************************************
                                     *                                                              *
                                     *
+                                             NASTRAN INFORMATION MESSAGE 3307, POTENTIALLY         *
                                     *         1 EIGENVALUE(S) AT LOW FREQ. END NOT FOUND           *
                                     *                                                              *
                                     *        (THIS MESSAGE CAN BE SUPPRESSED BY DIAG 37)           *
                                     ****************************************************************

        1         1        0.0                 0.0                 0.0                 4.935291E+02        0.0                      
        2         6        3.202684E+05        5.659226E+02        9.006937E+01        2.270001E+02        7.270096E+07             
        3         5        1.570861E+06        1.253340E+03        1.994752E+02        9.914820E+01        1.557480E+08             
        4         3        3.804042E+06        1.950395E+03        3.104150E+02        1.100886E+02        4.187818E+08             
        5         2        5.943163E+06        2.437860E+03        3.879975E+02        8.700966E+01        5.171126E+08             
        6         4        7.963367E+06        2.821944E+03        4.491263E+02        3.788091E+01        3.016596E+08             
        7         7        1.038296E+07        3.222259E+03        5.128385E+02        1.447133E+02        1.502552E+09             
1     ACOUSTIC CAVITY ANALYSIS                                              /    95 SUN SOLARIS NASTRAN    / MAY 17, 95 / PAGE    18
      NASTRAN DEMONSTRATION PROBLEM NO. D03-04-1A                                                                                   
0                                                                                                                                   
      EIGENVALUE =  0.000000E+00    (CYCLIC FREQUENCY =  0.000000E+00 HZ)

                                         R E A L   E I G E N V E C T O R   N O .          1
 
      POINT ID.   TYPE          T1             T2             T3             R1             R2             R3
             1      S      1.000000E+00   1.000000E+00   1.000000E+00   1.000000E+00   1.000000E+00   1.000000E+00                  
             7      S      1.000000E+00   1.000000E+00   1.000000E+00                                                               
            11      S      1.000000E+00   1.000000E+00   1.000000E+00   1.000000E+00                                                
            16      S      1.000000E+00   1.000000E+00                                                                              
            19      S      1.000000E+00   1.000000E+00   1.000000E+00                                                               
            23      S      1.000000E+00   1.000000E+00                                                                              
            26      S      1.000000E+00   1.000000E+00   1.000000E+00   1.000000E+00   1.000000E+00                                 
            32      S      1.000000E+00   1.000000E+00   1.000000E+00   1.000000E+00                                                
            37      S      1.000000E+00   1.000000E+00   1.000000E+00                                                               
            41      S      1.000000E+00   1.000000E+00   1.000000E+00                                                               
            45      S      1.000000E+00   1.000000E+00   1.000000E+00                                                               
            49      S      1.000000E+00   1.000000E+00   1.000000E+00                                                               
            53      S      1.000000E+00   1.000000E+00   1.000000E+00                                                               
            57      S      1.000000E+00   1.000000E+00   1.000000E+00                                                               
            61      S      1.000000E+00   1.000000E+00   1.000000E+00                                                               
            65      S      1.000000E+00   1.000000E+00   1.000000E+00                                                               
            69      S      1.000000E+00   1.000000E+00   1.000000E+00                                                               
            73      S      1.000000E+00   1.000000E+00   1.000000E+00                                                               
            77      S      1.000000E+00   1.000000E+00   1.000000E+00                                                               
            81      S      1.000000E+00   1.000000E+00   1.000000E+00                                                               
            85      S      1.000000E+00   1.000000E+00   1.000000E+00                                                               
            89      S      1.000000E+00                                                                                             
            91      S      1.000000E+00   1.000000E+00                                                                              
            94      S      1.000000E+00   1.000000E+00                                                                              
            97      S      1.000000E+00   1.000000E+00                                                                              
           100      S      1.000000E+00   1.000000E+00   1.000000E+00                                                               
           104      S      1.000000E+00   1.000000E+00                                                                              
           107      S      1.000000E+00   1.000000E+00   1.000000E+00   1.000000E+00                                                
           112      S      1.000000E+00   1.000000E+00                                                                              
           115      S      1.000000E+00   1.000000E+00   1.000000E+00   1.000000E+00   1.000000E+00   1.000000E+00                  
           122      S      1.000000E+00   1.000000E+00                                                                              
           125      S      1.000000E+00   1.000000E+00   1.000000E+00   1.000000E+00   1.000000E+00   1.000000E+00                  
           131      S      1.000000E+00   1.000000E+00                                                                              
           142      S      1.000000E+00   1.000000E+00                                                                              
           145      S      1.000000E+00   1.000000E+00   1.000000E+00   1.000000E+00   1.000000E+00   1.000000E+00                  
           151      S      1.000000E+00   1.000000E+00                                                                              
           162      S      1.000000E+00   1.000000E+00                                                                              
           165      S      1.000000E+00   1.000000E+00   1.000000E+00   1.000000E+00   1.000000E+00   1.000000E+00                  
           171      S      1.000000E+00   1.000000E+00                                                                              
           182      S      1.000000E+00   1.000000E+00                                                                              
           185      S      1.000000E+00   1.000000E+00   1.000000E+00   1.000000E+00   1.000000E+00   1.000000E+00                  
           191      S      1.000000E+00   1.000000E+00                                                                              
           201      S      1.000000E+00   1.000000E+00   1.000000E+00                                                               
           205      S      1.000000E+00   1.000000E+00   1.000000E+00   1.000000E+00   1.000000E+00   1.000000E+00                  
1     ACOUSTIC CAVITY ANALYSIS                                              /    95 SUN SOLARIS NASTRAN    / MAY 17, 95 / PAGE    19
      NASTRAN DEMONSTRATION PROBLEM NO. D03-04-1A                                                                                   
0                                                                                                                                   
      EIGENVALUE =  0.320268E+06    (CYCLIC FREQUENCY =  9.006937E+01 HZ)

                                         R E A L   E I G E N V E C T O R   N O .          2
 
      POINT ID.   TYPE          T1             T2             T3             R1             R2             R3
             1      S      1.000000E+00   9.975941E-01   9.967453E-01   9.884522E-01   9.884430E-01   9.699124E-01                  
             7      S      9.689181E-01   9.395770E-01   9.415587E-01                                                               
            11      S      7.876819E-01   7.874297E-01   7.877946E-01   7.880729E-01                                                
            16      S      9.068894E-01   9.142652E-01                                                                              
            19      S      7.857642E-01   7.869968E-01   7.868734E-01                                                               
            23      S      8.666415E-01   8.703047E-01                                                                              
            26      S      7.784884E-01   7.816929E-01   7.954486E-01   8.217325E-01   8.295709E-01                                 
            32      S      7.618984E-01   7.703706E-01   7.721107E-01   7.705994E-01                                                
            37      S      7.264259E-01   7.325559E-01   7.391633E-01                                                               
            41      S      6.761388E-01   6.787086E-01   6.810538E-01                                                               
            45      S      6.165234E-01   6.177194E-01   6.189237E-01                                                               
            49      S      5.501673E-01   5.508948E-01   5.517957E-01                                                               
            53      S      4.782053E-01   4.788270E-01   4.796825E-01                                                               
            57      S      4.013835E-01   4.021067E-01   4.030329E-01                                                               
            61      S      3.202401E-01   3.213666E-01   3.225299E-01                                                               
            65      S      2.349868E-01   2.372744E-01   2.391844E-01                                                               
            69      S      1.449575E-01   1.504174E-01   1.549289E-01                                                               
            73      S      4.710434E-02   6.051802E-02   7.498813E-02                                                               
            77      S     -3.990197E-02  -1.548793E-02   2.484022E-02                                                               
            81      S     -1.342677E-01  -1.208564E-01  -9.617007E-02                                                               
            85      S     -2.788503E-01  -2.894892E-01  -3.082668E-01                                                               
            89      S     -3.117526E-01                                                                                             
            91      S     -4.222920E-01  -4.447383E-01                                                                              
            94      S     -4.455524E-01  -5.141683E-01                                                                              
            97      S     -5.221623E-01  -5.370502E-01                                                                              
           100      S     -5.374208E-01  -5.702099E-01  -6.164784E-01                                                               
           104      S     -5.988024E-01  -6.071663E-01                                                                              
           107      S     -6.076176E-01  -6.272755E-01  -6.559125E-01  -6.935366E-01                                                
           112      S     -6.513859E-01  -6.569210E-01                                                                              
           115      S     -6.575661E-01  -6.716077E-01  -6.926700E-01  -7.178277E-01  -7.504547E-01  -7.763857E-01                  
           122      S     -6.971076E-01  -7.013860E-01                                                                              
           125      S     -7.019932E-01  -7.126028E-01  -7.278574E-01  -7.459795E-01  -7.652700E-01  -7.817789E-01                  
           131      S     -7.937099E-01  -7.990791E-01                                                                              
           142      S     -7.313625E-01  -7.345904E-01                                                                              
           145      S     -7.350470E-01  -7.429599E-01  -7.540933E-01  -7.671297E-01  -7.804158E-01  -7.917681E-01                  
           151      S     -7.995550E-01  -8.019209E-01                                                                              
           162      S     -7.552004E-01  -7.575614E-01                                                                              
           165      S     -7.579006E-01  -7.638075E-01  -7.720690E-01  -7.815714E-01  -7.909154E-01  -7.986076E-01                  
           171      S     -8.034217E-01  -8.046135E-01                                                                              
           182      S     -7.695252E-01  -7.710483E-01                                                                              
           185      S     -7.712984E-01  -7.758071E-01  -7.822587E-01  -7.895499E-01  -7.963565E-01  -8.015710E-01                  
           191      S     -8.045366E-01  -8.046646E-01                                                                              
           201      S     -7.768496E-01  -7.751908E-01  -7.754630E-01                                                               
           205      S     -7.756174E-01  -7.792987E-01  -7.850344E-01  -7.914826E-01  -7.971526E-01  -8.014495E-01                  
1     ACOUSTIC CAVITY ANALYSIS                                              /    95 SUN SOLARIS NASTRAN    / MAY 17, 95 / PAGE    20
      NASTRAN DEMONSTRATION PROBLEM NO. D03-04-1A                                                                                   
0                                                                                                                                   
      EIGENVALUE =  0.157086E+07    (CYCLIC FREQUENCY =  1.994752E+02 HZ)

                                         R E A L   E I G E N V E C T O R   N O .          3
 
      POINT ID.   TYPE          T1             T2             T3             R1             R2             R3
             1      S      1.000000E+00   9.882658E-01   9.841478E-01   9.440876E-01   9.440718E-01   8.561423E-01                  
             7      S      8.515909E-01   7.167795E-01   7.257561E-01                                                               
            11      S      7.271417E-02   7.260004E-02   7.490163E-02   7.688450E-02                                                
            16      S      5.732117E-01   6.051642E-01                                                                              
            19      S      6.987406E-02   7.649949E-02   8.330506E-02                                                               
            23      S      4.066502E-01   4.207875E-01                                                                              
            26      S      5.441731E-02   6.933504E-02   1.309097E-01   2.324457E-01   2.613986E-01                                 
            32      S      1.238475E-02   4.761748E-02   6.088098E-02   5.992212E-02                                                
            37      S     -7.941604E-02  -5.612956E-02  -3.330351E-02                                                               
            41      S     -2.013546E-01  -1.920103E-01  -1.842808E-01                                                               
            45      S     -3.272263E-01  -3.233868E-01  -3.201148E-01                                                               
            49      S     -4.440147E-01  -4.422756E-01  -4.405158E-01                                                               
            53      S     -5.442857E-01  -5.434176E-01  -5.423146E-01                                                               
            57      S     -6.227831E-01  -6.224241E-01  -6.217663E-01                                                               
            61      S     -6.756005E-01  -6.758255E-01  -6.756700E-01                                                               
            65      S     -6.998181E-01  -7.011971E-01  -7.019414E-01                                                               
            69      S     -6.930268E-01  -6.971817E-01  -7.003117E-01                                                               
            73      S     -6.521596E-01  -6.629374E-01  -6.743008E-01                                                               
            77      S     -5.927836E-01  -6.126257E-01  -6.453890E-01                                                               
            81      S     -5.129853E-01  -5.243545E-01  -5.452221E-01                                                               
            85      S     -3.757259E-01  -3.640160E-01  -3.438029E-01                                                               
            89      S     -3.402276E-01                                                                                             
            91      S     -2.257957E-01  -1.992895E-01                                                                              
            94      S     -1.983497E-01  -1.199372E-01                                                                              
            97      S     -1.106124E-01  -9.194913E-02                                                                              
           100      S     -9.148090E-02  -5.051503E-02   1.058399E-02                                                               
           104      S     -1.370847E-02  -2.316523E-03                                                                              
           107      S     -1.688395E-03   2.537355E-02   6.624850E-02   1.224473E-01                                                
           112      S      5.824428E-02   6.646018E-02                                                                              
           115      S      6.743953E-02   8.847223E-02   1.206946E-01   1.603431E-01   2.136930E-01   2.577728E-01                  
           122      S      1.249221E-01   1.318185E-01                                                                              
           125      S      1.328078E-01   1.500200E-01   1.750678E-01   2.053818E-01   2.382510E-01   2.671078E-01                  
           131      S      2.882732E-01   2.978645E-01                                                                              
           142      S      1.775346E-01   1.831192E-01                                                                              
[...]
            303  7.76297E+01  0.0          2.35046E+02 -1.44430E+02  0.0         -7.76297E+01  0.0          2.16051E+02  0.0        
            304  7.76297E+01  0.0          3.00660E+02 -2.90398E+02  0.0          2.38988E+02  0.0          7.76297E+01  0.0        
            305 -1.26947E+00  0.0          2.63531E+02 -2.38988E+02  0.0         -8.21315E+01  0.0          2.50741E+02  0.0        
            306 -8.10270E+01  0.0          5.02803E+02 -4.79062E+02  0.0          4.61489E+02  0.0          8.21315E+01  0.0        
            307 -3.92377E+01  0.0          5.31178E+02 -4.61489E+02  0.0          3.92377E+01  0.0          3.77574E+02  0.0        
            318 -8.29963E+01  0.0          2.67062E+02 -2.54245E+02  0.0          2.31149E+02  0.0         -8.29963E+01  0.0        
            319 -1.11511E+02  0.0          2.70742E+02 -2.87957E+02  0.0          1.11511E+02  0.0          2.54245E+02  0.0        
            321  1.50553E+02  0.0          5.14236E+02 -5.34356E+02  0.0          4.91591E+02  0.0          1.50553E+02  0.0        
            401  1.00564E+01  0.0         -9.18502E+01  8.73495E+01  0.0          3.55656E+01  0.0         -8.72368E+01  0.0        
            408 -5.48634E+01  0.0          2.80584E+02 -2.50741E+02  0.0          2.85875E+02  0.0         -1.00244E+02  0.0        
            410 -1.58592E+02  0.0          6.33588E+02 -3.77574E+02  0.0          6.34978E+02  0.0          6.37455E+01  0.0        
1     ACOUSTIC CAVITY ANALYSIS                                              /    95 SUN SOLARIS NASTRAN    / MAY 17, 95 / PAGE    57
      NASTRAN DEMONSTRATION PROBLEM NO. D03-04-1A                                                                                   
0                                                                                                                                   
      EIGENVALUE =  0.103830E+08    (CYCLIC FREQUENCY =  5.128385E+02 HZ)

          V E L O C I T I E S   I N   A X I S Y M M E T R I C   F L U I D   E L E M E N T S   ( C A X I F 4 - S T R E S S )
 
      ELEMENT               CENTER                      EDGE  1              EDGE  2              EDGE  3              EDGE  4
        ID.         R ------- PHI ------ Z            S ------- PHI        S ------- PHI        S ------- PHI        S ------- PHI
          207 -7.80835E+00    0.00  5.01992E+02 -5.04618E+02    0.00  1.92947E+01    0.00  4.79062E+02    0.00  3.67810E+00    0.00 
          208 -1.53618E+01    0.00  5.82315E+02 -5.77986E+02    0.00  1.14289E+01    0.00  5.86645E+02    0.00 -1.92947E+01    0.00 
          209 -8.56993E+00    0.00  4.90838E+02 -4.87719E+02    0.00  5.71100E+00    0.00  4.93957E+02    0.00 -1.14289E+01    0.00 
          210 -3.89166E+00    0.00  2.61903E+02 -2.59918E+02    0.00  2.07251E+00    0.00  2.63888E+02    0.00 -5.71100E+00    0.00 
          211 -8.58154E-01    0.00 -4.06825E+01  4.20071E+01    0.00 -3.56018E-01    0.00 -3.93579E+01    0.00 -2.07251E+00    0.00 
          212  1.04150E+00    0.00 -3.35204E+02  3.35952E+02    0.00 -1.72687E+00    0.00 -3.34456E+02    0.00  3.56018E-01    0.00 
          213  1.66925E+00    0.00 -5.42204E+02  5.42142E+02    0.00 -1.61160E+00    0.00 -5.42268E+02    0.00  1.72687E+00    0.00 
          214  2.81670E-01    0.00 -6.05081E+02  6.03630E+02    0.00  1.04825E+00    0.00 -6.06532E+02    0.00  1.61160E+00    0.00 
          215 -4.80263E+00    0.00 -5.04729E+02  5.00633E+02    0.00  8.55695E+00    0.00 -5.08824E+02    0.00 -1.04825E+00    0.00 
          216 -1.69904E+01    0.00 -2.63352E+02  2.54152E+02    0.00  2.54238E+01    0.00 -2.72552E+02    0.00 -8.55695E+00    0.00 
          217 -3.65868E+01    0.00  2.90833E+01 -4.48427E+01    0.00  4.77498E+01    0.00  1.33239E+01    0.00 -2.54238E+01    0.00 
          220  1.30393E+01    0.00  6.01334E+02 -5.53669E+02    0.00 -8.11328E+01    0.00  6.49000E+02    0.00 -5.50543E+01    0.00 
          223  8.20574E+01    0.00  3.17747E+02 -3.34355E+02    0.00 -6.58102E+01    0.00  3.01139E+02    0.00  9.83046E+01    0.00 
          224  5.40013E+01    0.00  8.24364E+01 -9.42454E+01    0.00 -4.21923E+01    0.00  7.06274E+01    0.00  6.58102E+01    0.00 
          225  3.70155E+01    0.00 -1.34314E+02  1.28360E+02    0.00 -3.18387E+01    0.00 -1.40267E+02    0.00  4.21923E+01    0.00 
          226  3.01729E+01    0.00 -3.02835E+02  3.01093E+02    0.00 -2.85071E+01    0.00 -3.04576E+02    0.00  3.18387E+01    0.00 
          227  3.14609E+01    0.00 -3.95313E+02  3.98401E+02    0.00 -3.44147E+01    0.00 -3.92224E+02    0.00  2.85071E+01    0.00 
          228  4.05312E+01    0.00 -3.90984E+02  3.97378E+02    0.00 -4.66478E+01    0.00 -3.84589E+02    0.00  3.44147E+01    0.00 
          229  5.69981E+01    0.00 -2.96052E+02  3.06873E+02    0.00 -6.73484E+01    0.00 -2.85231E+02    0.00  4.66478E+01    0.00 
          230  9.34781E+01    0.00 -1.48255E+02  1.47767E+02    0.00 -1.23763E+02    0.00 -1.22452E+02    0.00  6.73484E+01    0.00 
          308 -2.67607E+01    0.00  6.00854E+02 -5.86645E+02    0.00  1.42836E+01    0.00  6.15232E+02    0.00 -3.92377E+01    0.00 
          309 -1.03208E+01    0.00  4.98393E+02 -4.93957E+02    0.00  6.35797E+00    0.00  5.02913E+02    0.00 -1.42836E+01    0.00 
          310 -4.17276E+00    0.00  2.66309E+02 -2.63888E+02    0.00  1.98743E+00    0.00  2.68760E+02    0.00 -6.35797E+00    0.00 
          311 -3.35571E-01    0.00 -3.75465E+01  3.93579E+01    0.00 -1.31635E+00    0.00 -3.57289E+01    0.00 -1.98743E+00    0.00 
          312  2.48666E+00    0.00 -3.33186E+02  3.34456E+02    0.00 -3.65692E+00    0.00 -3.31923E+02    0.00  1.31635E+00    0.00 
          313  4.06223E+00    0.00 -5.41832E+02  5.42268E+02    0.00 -4.46753E+00    0.00 -5.41408E+02    0.00  3.65692E+00    0.00 
          314  3.62549E+00    0.00 -6.07426E+02  6.06532E+02    0.00 -2.78345E+00    0.00 -6.08323E+02    0.00  4.46753E+00    0.00 
          315 -5.08224E-01    0.00 -5.12284E+02  5.08824E+02    0.00  3.79999E+00    0.00 -5.15705E+02    0.00  2.78345E+00    0.00 
          316 -1.40711E+01    0.00 -2.83232E+02  2.72552E+02    0.00  2.43422E+01    0.00 -2.93732E+02    0.00 -3.79999E+00    0.00 
          317 -5.36693E+01    0.00 -2.48444E+01 -1.33239E+01    0.00  8.29963E+01    0.00 -5.89072E+01    0.00 -2.43422E+01    0.00 
          320  1.95208E+01    0.00  7.27619E+02 -6.49000E+02    0.00 -1.50553E+02    0.00  8.06238E+02    0.00 -1.11511E+02    0.00 
          402  8.95334E+01    0.00 -2.36582E+02  2.51824E+02    0.00 -1.22601E+00    0.00 -2.53193E+02    0.00 -3.55656E+01    0.00 
          403  1.49469E+02    0.00 -4.44264E+02  4.56137E+02    0.00  2.27054E+01    0.00 -4.80556E+02    0.00  1.22601E+00    0.00 
          404  1.37211E+02    0.00 -5.24380E+02  5.22750E+02    0.00 -3.73992E+01    0.00 -5.59473E+02    0.00 -2.27054E+01    0.00 
          405  6.73944E+01    0.00 -4.14319E+02  3.83345E+02    0.00 -7.22092E+01    0.00 -4.53569E+02    0.00  3.73992E+01    0.00 
          406  2.53658E+01    0.00 -2.20145E+02  1.88686E+02    0.00  3.28662E+00    0.00 -2.48991E+02    0.00  7.22092E+01    0.00 
          407 -2.27447E+01    0.00  2.96213E+01 -5.23221E+01    0.00  3.58104E+01    0.00  7.84656E+00    0.00 -3.28662E+00    0.00 
          409 -6.75699E+01    0.00  2.98148E+02 -2.85875E+02    0.00 -6.37455E+01    0.00  3.11689E+02    0.00 -3.58104E+01    0.00 
1     ACOUSTIC CAVITY ANALYSIS                                              /    95 SUN SOLARIS NASTRAN    / MAY 17, 95 / PAGE    58
      NASTRAN DEMONSTRATION PROBLEM NO. D03-04-1A                                                                                   
0                                                                                                                                   
      EIGENVALUE =  0.103830E+08    (CYCLIC FREQUENCY =  5.128385E+02 HZ)

                        V E L O C I T I E S   I N   S L O T   E L E M E N T S   ( C S L O T 3 - S T R E S S )
 
         ELEMENT                        CENTER                          EDGE  1               EDGE  2               EDGE  3
           ID.                 R ------------------- Z                     S                     S                     S
             422          2.350721E+02          5.151769E+02          4.820416E+02          2.350721E+02         -5.345992E+02      
             523          8.988800E+01          1.620499E+02          1.438148E+02          8.988794E+01         -1.793692E+02      
             624         -4.279047E+01         -4.666111E+01         -3.990198E+01         -4.279047E+01          6.329382E+01      
             725         -1.218678E+02         -1.754260E+02         -1.517923E+02         -1.218678E+02          2.065039E+02      
             825         -1.287596E+02         -1.896266E+02         -1.563753E+02         -3.036259E+01          2.111176E+02      
             826         -8.962390E+01         -1.113551E+02          3.036259E+01         -8.962392E+01          1.113551E+02      
             926         -8.576186E+01         -1.113551E+02         -1.113551E+02         -8.826981E+01          1.275900E+02      
             930          6.788463E+01         -5.343973E+01         -5.343967E+01          8.480105E+01         -7.024117E+01      
            1026         -4.502869E+01         -8.615958E+01         -8.615953E+01          3.105063E+01          8.958882E+01      
            1027         -1.581372E+01         -5.816190E+01         -3.105063E+01         -1.581372E+01          5.820709E+01      
            1029          1.641938E+01         -5.321228E+01         -3.129469E+01          5.323541E+01         -1.641938E+01      
            1030          3.967171E+01         -7.181416E+01         -7.181416E+01          7.673775E+01          3.129469E+01      
1     ACOUSTIC CAVITY ANALYSIS                                              /    95 SUN SOLARIS NASTRAN    / MAY 17, 95 / PAGE    59
      NASTRAN DEMONSTRATION PROBLEM NO. D03-04-1A                                                                                   
0                                                                                                                                   
      EIGENVALUE =  0.103830E+08    (CYCLIC FREQUENCY =  5.128385E+02 HZ)

                        V E L O C I T I E S   I N   S L O T   E L E M E N T S   ( C S L O T 4 - S T R E S S )
 
             ELEMENT                  CENTER                    EDGE  1           EDGE  2           EDGE  3           EDGE  4
               ID.             R --------------- Z                 S                 S                 S                 S
                 423      1.780911E+02      2.385102E+02      2.992899E+02      1.211101E+02     -1.438148E+02     -2.350721E+02    
                 424      9.550742E+01      4.686560E+01      7.135510E+01      6.990485E+01     -2.237610E+01     -1.211101E+02    
                 425      6.200000E+01     -1.473691E+02     -1.386738E+02      5.409509E+01      1.560644E+02     -6.990485E+01    
                 426      5.428601E+01     -3.045673E+02     -3.047583E+02      5.447701E+01      3.043763E+02     -5.409509E+01    
                 427      6.324039E+01     -3.824519E+02     -3.912153E+02      7.200379E+01      3.736885E+02     -5.447701E+01    
                 428      8.505042E+01     -3.698862E+02     -3.829328E+02      9.809711E+01      3.568396E+02     -7.200379E+01    
                 429      1.122641E+02     -2.689387E+02     -2.831056E+02      1.264309E+02      2.547717E+02     -9.809711E+01    
                 430      1.372433E+02     -1.068836E+02     -1.186303E+02      1.504460E+02      9.513696E+01     -1.264309E+02    
                 524      6.405276E+01     -4.245361E+00      2.237610E+01      3.821747E+01      3.990198E+01     -8.988794E+01    
                 525      3.300000E+01     -1.618037E+02     -1.560644E+02      2.778253E+01      1.675430E+02     -3.821747E+01    
                 526      3.485739E+01     -2.973015E+02     -3.043763E+02      4.193225E+01      2.902267E+02     -2.778253E+01    
                 527      5.759097E+01     -3.580297E+02     -3.736885E+02      7.324974E+01      3.423711E+02     -4.193225E+01    
                 528      9.145747E+01     -3.386317E+02     -3.568396E+02      1.096653E+02      3.204240E+02     -7.324974E+01    
                 529      1.249504E+02     -2.394866E+02     -2.547717E+02      1.402356E+02      2.242014E+02     -1.096653E+02    
                 530      1.463947E+02     -8.827612E+01     -9.513696E+01      1.545201E+02      8.141528E+01     -1.402356E+02    
                 625     -4.008340E+01     -1.643284E+02     -1.675430E+02     -3.737640E+01      1.517923E+02      4.279047E+01    
                 626     -1.827048E+01     -2.711207E+02     -2.902267E+02      8.354797E-01      2.520147E+02      3.737640E+01    
                 627      2.530894E+01     -3.178977E+02     -3.423711E+02      4.978236E+01      2.934243E+02     -8.354797E-01    
                 628      7.380819E+01     -2.963983E+02     -3.204240E+02      9.783401E+01      2.723724E+02     -4.978236E+01    
                 629      1.151690E+02     -2.068664E+02     -2.242014E+02      1.325040E+02      1.895313E+02     -9.783401E+01    
                 630      1.371093E+02     -7.615219E+01     -8.141528E+01      1.434081E+02      7.088910E+01     -1.325040E+02    
                 726     -8.989047E+01     -2.164037E+02     -2.520147E+02     -5.791321E+01      1.563753E+02      1.218678E+02    
                 727     -2.211736E+01     -2.576284E+02     -2.934243E+02      1.367849E+01      2.218326E+02      5.791321E+01    
                 728      4.338102E+01     -2.426699E+02     -2.723724E+02      7.308354E+01      2.129674E+02     -1.367849E+01    
                 729      9.284408E+01     -1.697707E+02     -1.895313E+02      1.126046E+02      1.500101E+02     -7.308354E+01    
                 730      1.157378E+02     -6.705980E+01     -7.088910E+01      1.244540E+02      6.323047E+01     -1.126046E+02    
                 827     -5.198239E+01     -1.841911E+02     -2.218326E+02     -1.434083E+01      1.465495E+02      8.962392E+01    
                 828      1.703640E+01     -1.815902E+02     -2.129674E+02      4.841363E+01      1.502129E+02      1.434083E+01    
                 829      6.941338E+01     -1.290104E+02     -1.500101E+02      9.041310E+01      1.080106E+02     -4.841363E+01    
                 830      9.345047E+01     -5.833511E+01     -6.323047E+01      1.092973E+02      5.343967E+01     -9.041310E+01    
                 927     -5.579632E+01     -1.163545E+02     -1.465495E+02     -2.594447E+01      8.615953E+01      8.826981E+01    
                 928      2.454268E+00     -1.218142E+02     -1.502129E+02      3.085300E+01      9.341550E+01      2.594447E+01    
                 929      4.853991E+01     -8.991241E+01     -1.080106E+02      7.024117E+01      7.181416E+01     -3.085300E+01    
                1028      3.028297E-01     -7.986300E+01     -9.341550E+01      1.641938E+01      6.631039E+01      1.581372E+01    
1     ACOUSTIC CAVITY ANALYSIS                                              /    95 SUN SOLARIS NASTRAN    / MAY 17, 95 / PAGE    60
      NASTRAN DEMONSTRATION PROBLEM NO. D03-04-1A                                                                                   
0                                                                                                                                   
                                                  MESSAGES FROM THE PLOT MODULE                                                   





 P L O T T E R    D A T A                                                                                                           
                                                                                                                                    
          THE FOLLOWING PLOTS ARE FOR A NASTPLT MICROFILM PLOTTER WITHOUT TYPING CAPABILITY                                         
                                                                                                                                    
          AN END-OF-FILE MARK FOLLOWS THE LAST PLOT                                                                                 
                                                                                                                                    
          THE FIRST COMMAND FOR EACH PLOT CONTAINS THE PLOT NUMBER                                                                  
                                                                                                                                    
          CSCALE =  1.00                                                                                                            
                                                                                                                                    
          THE FOLLOWING PLOTS ARE REQUESTED ON PAPER ONLY                                                                           
                                                                                                                                    




 E N G I N E E R I N G    D A T A                                                                                                   
                                                                                                                                    
          ORTHOGRAPHIC PROJECTION                                                                                                   
          ROTATIONS (DEGREES) - GAMMA = -20.00, BETA =  45.00, ALPHA =   0.00,  AXES = -Z,+Y,+X, SYMMETRIC                          
          SCALE (OBJECT-TO-PLOT SIZE) = 8.275312E-02                                                                                
                                                                                                                                    
          ORIGIN       1   -   X0 = -7.166634E-01, Y0 = -0.396984E+01     (INCHES)                                                  




                                                  PLOT MODULE MESSAGES CONTINUE                                                     
                                                                                                                                    
          PLOT    2   MODAL  DEFORM.     1 - SUBCASE       1 - MODE   0.000000E+00 - FREQUENCY                                      
          PLOT    3   MODAL  DEFORM.     1 - SUBCASE       2 - MODE   9.006937E+01 - FREQUENCY                                      
          PLOT    4   MODAL  DEFORM.     1 - SUBCASE       3 - MODE   1.994752E+02 - FREQUENCY                                      
          PLOT    5   MODAL  DEFORM.     1 - SUBCASE       4 - MODE   3.104150E+02 - FREQUENCY                                      
          PLOT    6   MODAL  DEFORM.     1 - SUBCASE       5 - MODE   3.879975E+02 - FREQUENCY                                      
          PLOT    7   MODAL  DEFORM.     1 - SUBCASE       6 - MODE   4.491263E+02 - FREQUENCY                                      
          PLOT    8   MODAL  DEFORM.     1 - SUBCASE       7 - MODE   5.128385E+02 - FREQUENCY                                      
                                                 ORIGIN      1  USED IN THIS PLOT                                                   




                                        * * * END OF JOB * * *
1
 JOB TITLE =  ACOUSTIC CAVITY ANALYSIS                                           
 DATE:  5/17/95
 END TIME: 15:42: 5
 TOTAL WALL CLOCK TIME      3 SEC.
 
