





                                  ****
                                *      *
                               *        *
                               *  N A S T R A N
                               *        *
                                *      *
                                  ****


                             SUN COMPUTER SYSTEMS    
                                SOLARIS VERSION

                          SYSTEM RELEASE -  1995 ED.

                                DISTRIBUTED BY

         COMPUTER SOFTWARE MANAGEMENT AND INFORMATION CENTER (COSMIC)
                 UNIVERSITY OF GEORGIA, ATHENS, GEORGIA 30602
                 PHONE: (706)542-3265      FAX: (706)542-4807
1                                                                           /    95 SUN SOLARIS NASTRAN    / MAY 17, 95 / PAGE     2
                                                                                                                                    
0                                                                                                                                   
                                                                                                         
                                                                                                         
                         INSTALLATION CENTER USER INFORMATION GIVEN IN THIS SECTION                      
                                                                                                         
                                     *********************************************                       
                                     *                                           *                       
                                     *  PLEASE READ THE COMMENT IN DEMO PROBLEM  *                       
                                     *  D01002A ABOUT SYSTEM TIMING CONSTANTS    *                       
                                     *                                           *                       
                                     *********************************************                       
                                                                                                         
                         ===X=    TOP OF PAGE REQUEST IF 'X' IS REPLACED BY '='                          
                                                                                                         
1                                                                           /    95 SUN SOLARIS NASTRAN    / MAY 17, 95 / PAGE     3
                                                                                                                                    
0                                                                                                                                   
0*** USER INFORMATION MESSAGE 225, GINO TIME CONSTANTS ARE BEING COMPUTED
     (SEE NASINFO FILE FOR ELIMINATION OF THESE COMPUTATIONS)
1                                                                           /    95 SUN SOLARIS NASTRAN    / MAY 17, 95 / PAGE     4
                                                                                                                                    
0        N A S T R A N    E X E C U T I V E    C O N T R O L    D E C K    E C H O                                                  
0                                                                                                                                   
                                                                                                                                    
                                                                                                                                    
     ID    D03061A,NASTRAN                                                           
     TIME  15                                                                        
     APP   HEAT                                                                      
     SOL   3,1                                                                       
     CEND                                                                            


0*** USER INFORMATION MESSAGE, TURN DIAG 48 ON FOR NASTRAN RELEASE NEWS, DIAG DEFINITION, NEW DMAP
         MODULES AND NEW BULKDATA CARDS INFORMATION
1     NONLINEAR RADIATION AND CONDUCTION OF A CYLINDER                      /    95 SUN SOLARIS NASTRAN    / MAY 17, 95 / PAGE     5
      NASTRAN DEMONSTRATION PROBLEM NO. D03-06-1A                                                                                   
0                                                                                                                                   
0                                        C A S E    C O N T R O L   D E C K   E C H O                                               
                 CARD                                                                                                               
                 COUNT                                                                                                              
                  1      TITLE    = NONLINEAR RADIATION AND CONDUCTION OF A CYLINDER                     
                  2      SUBTITLE = NASTRAN DEMONSTRATION PROBLEM NO. D03-06-1A                          
                  3      LOAD = 102                                                                      
                  4      TEMP(MATERIAL) = 201                                                            
                  5      OUTPUT                                                                          
                  6      THERMAL = ALL                                                                   
                  7      OLOAD   = ALL                                                                   
                  8      ELFORCE = ALL                                                                   
                  9      BEGIN BULK                                                                      


                        (NO. OF UNSORTED BULK DATA CARDS READ =   143, INCLUDING   0 COMMENT CARDS)
0*** USER INFORMATION MESSAGE 207, BULK DATA DECK IS NOT SORTED. NASTRAN WILL RE-ORDER THE INPUT DECK.
1     NONLINEAR RADIATION AND CONDUCTION OF A CYLINDER                      /    95 SUN SOLARIS NASTRAN    / MAY 17, 95 / PAGE     6
      NASTRAN DEMONSTRATION PROBLEM NO. D03-06-1A                                                                                   
0                                                                                                                                   
0                                                 S O R T E D   B U L K    D A T A    E C H O                                       
                     CARD                                                                                                           
                     COUNT        ---1--- +++2+++ ---3--- +++4+++ ---5--- +++6+++ ---7--- +++8+++ ---9--- +++10+++                  
                    1-        CHBDY   21      101     LINE    20      1                               +B1     
                    2-        +B1                                     1.0                                     
                    3-        CHBDY   22      101     LINE    1       2                               +B2     
                    4-        +B2                                     1.0                                     
                    5-        CHBDY   23      101     LINE    2       3                               +B3     
                    6-        +B3                                     1.0                                     
                    7-        CHBDY   24      101     LINE    3       4                               +B4     
                    8-        +B4                                     1.0                                     
                    9-        CHBDY   25      101     LINE    4       5                               +B5     
                   10-        +B5                                     1.0                                     
                   11-        CHBDY   26      101     LINE    5       6                               +B6     
                   12-        +B6                                     -1.0                                    
                   13-        CHBDY   27      101     LINE    6       7                               +B7     
                   14-        +B7                                     -1.0                                    
                   15-        CHBDY   28      101     LINE    7       8                               +B8     
                   16-        +B8                                     -1.0                                    
                   17-        CHBDY   29      101     LINE    8       9                               +B9     
                   18-        +B9                                     -1.0                                    
                   19-        CHBDY   30      101     LINE    9       10                              +B10    
                   20-        +B10                                    -1.0                                    
                   21-        CHBDY   31      101     LINE    10      11                              +B11    
                   22-        +B11                                    -1.0                                    
                   23-        CHBDY   32      101     LINE    11      12                              +B12    
                   24-        +B12                                    -1.0                                    
                   25-        CHBDY   33      101     LINE    12      13                              +B13    
                   26-        +B13                                    -1.0                                    
                   27-        CHBDY   34      101     LINE    13      14                              +B14    
                   28-        +B14                                    -1.0                                    
                   29-        CHBDY   35      101     LINE    14      15                              +B15    
                   30-        +B15                                    -1.0                                    
                   31-        CHBDY   36      101     LINE    15      16                              +B16    
                   32-        +B16                                    1.0                                     
                   33-        CHBDY   37      101     LINE    16      17                              +B17    
                   34-        +B17                                    1.0                                     
                   35-        CHBDY   38      101     LINE    17      18                              +B18    
                   36-        +B18                                    1.0                                     
                   37-        CHBDY   39      101     LINE    18      19                              +B19    
                   38-        +B19                                    1.0                                     
                   39-        CHBDY   40      101     LINE    19      20                              +B20    
                   40-        +B20                                    1.0                                     
                   41-        CHBDY   41      101     LINE    20      1                                       
                   42-        CHBDY   42      101     LINE    1       2                                       
                   43-        CHBDY   43      101     LINE    2       3                                       
                   44-        CHBDY   44      101     LINE    3       4                                       
                   45-        CHBDY   45      101     LINE    4       5                                       
                   46-        CHBDY   46      101     LINE    5       6                                       
                   47-        CHBDY   47      101     LINE    6       7                                       
1     NONLINEAR RADIATION AND CONDUCTION OF A CYLINDER                      /    95 SUN SOLARIS NASTRAN    / MAY 17, 95 / PAGE     7
      NASTRAN DEMONSTRATION PROBLEM NO. D03-06-1A                                                                                   

                                                                                                                                    

                                                  S O R T E D   B U L K    D A T A    E C H O                                       
                     CARD                                                                                                           
                     COUNT        ---1--- +++2+++ ---3--- +++4+++ ---5--- +++6+++ ---7--- +++8+++ ---9--- +++10+++                  
                   48-        CHBDY   48      101     LINE    7       8                                       
                   49-        CHBDY   49      101     LINE    8       9                                       
                   50-        CHBDY   50      101     LINE    9       10                                      
                   51-        CHBDY   51      101     LINE    10      11                                      
                   52-        CHBDY   52      101     LINE    11      12                                      
                   53-        CHBDY   53      101     LINE    12      13                                      
                   54-        CHBDY   54      101     LINE    13      14                                      
                   55-        CHBDY   55      101     LINE    14      15                                      
                   56-        CHBDY   56      101     LINE    15      16                                      
                   57-        CHBDY   57      101     LINE    16      17                                      
                   58-        CHBDY   58      101     LINE    17      18                                      
                   59-        CHBDY   59      101     LINE    18      19                                      
                   60-        CHBDY   60      101     LINE    19      20                                      
                   61-        CORD2C  1                                                       1.0     +CORD1  
                   62-        +CORD1  1.0                                                                     
                   63-        CROD    1       100     20      1       2       100     1       2               
                   64-        CROD    3       100     2       3       4       100     3       4               
                   65-        CROD    5       100     4       5       6       100     5       6               
                   66-        CROD    7       100     6       7       8       100     7       8               
                   67-        CROD    9       100     8       9       10      100     9       10              
                   68-        CROD    11      100     10      11      12      100     11      12              
                   69-        CROD    13      100     12      13      14      100     13      14              
                   70-        CROD    15      100     14      15      16      100     15      16              
                   71-        CROD    17      100     16      17      18      100     17      18              
                   72-        CROD    19      100     18      19      20      100     19      20              
                   73-        GRDSET          1                                                               
                   74-        GRID    1               2.0     18.                                             
                   75-        GRID    2               2.0     36.                                             
                   76-        GRID    3               2.0     54.                                             
                   77-        GRID    4               2.0     72.                                             
                   78-        GRID    5               2.0     90.                                             
                   79-        GRID    6               2.0     108.                                            
                   80-        GRID    7               2.0     126.                                            
                   81-        GRID    8               2.0     144.                                            
                   82-        GRID    9               2.0     162.                                            
                   83-        GRID    10              2.0     180.                                            
                   84-        GRID    11              2.0     198.                                            
                   85-        GRID    12              2.0     216.                                            
                   86-        GRID    13              2.0     234.                                            
                   87-        GRID    14              2.0     252.                                            
                   88-        GRID    15              2.0     270.                                            
                   89-        GRID    16              2.0     288.                                            
                   90-        GRID    17              2.0     306.                                            
                   91-        GRID    18              2.0     324.                                            
                   92-        GRID    19              2.0     342.                                            
                   93-        GRID    20              2.0     .0                                              
                   94-        MAT4    100     94.5    36.7                                                    
1     NONLINEAR RADIATION AND CONDUCTION OF A CYLINDER                      /    95 SUN SOLARIS NASTRAN    / MAY 17, 95 / PAGE     8
      NASTRAN DEMONSTRATION PROBLEM NO. D03-06-1A                                                                                   

                                                                                                                                    

                                                  S O R T E D   B U L K    D A T A    E C H O                                       
                     CARD                                                                                                           
                     COUNT        ---1--- +++2+++ ---3--- +++4+++ ---5--- +++6+++ ---7--- +++8+++ ---9--- +++10+++                  
                   95-        PARAM   EPSHT   .001                                                    HEAT    
                   96-        PARAM   MAXIT   20                                                      HEAT    
                   97-        PARAM   SIGMA   .174-8                                                  HEAT    
                   98-        PARAM   TABS    460.                                                    HEAT    
                   99-        PHBDY   101             20.306  .1                                              
                  100-        PROD    100     100     .020306                                                 
                  101-        QVECT   102     425.    -1.     .0      .0      21      22      23      +Q102   
                  102-        +Q102   24      25      26      27      28      29      30      31      +Q102A  
                  103-        +Q102A  32      33      34      35      36      37      38      39      +Q102B  
                  104-        +Q102B  40                                                                      
                  105-        RADLST  21      THRU    40      41      THRU    60                              
                  106-        RADMTX  21      .0      .15643  .30902  .45399  .58779  .70711  .80902  +R21    
                  107-        +R21    .89101  .95106  .98769  1.0     .98769  .95106  .89101  .80902  +R21A   
                  108-        +R21A   .70711  .58779  .45399  .30902  .15643                                  
                  109-        RADMTX  22      .0      .15643  .30902  .45399  .58779  .70711  .80902  +R22    
                  110-        +R22    .89101  .95106  .98769  1.0     .98769  .95106  .89101  .80902  +R22A   
                  111-        +R22A   .70711  .58779  .45399  .30902                                          
                  112-        RADMTX  23      .0      .15643  .30902  .45399  .58779  .70711  .80902  +R23    
                  113-        +R23    .89101  .95106  .98769  1.0     .98769  .95106  .89101  .80902  +R23A   
                  114-        +R23A   .70711  .58779  .45399                                                  
                  115-        RADMTX  24      .0      .15643  .30902  .45399  .58779  .70711  .80902  +R24    
                  116-        +R24    .89101  .95106  .98769  1.0     .98769  .95106  .89101  .80902  +R24A   
                  117-        +R24A   .70711  .58779                                                          
                  118-        RADMTX  25      .0      .15643  .30902  .45399  .58779  .70711  .80902  +R25    
                  119-        +R25    .89101  .95106  .98769  1.0     .98769  .95106  .89101  .80902  +R25A   
                  120-        +R25A   .70711                                                                  
                  121-        RADMTX  26      .0      .15643  .30902  .45399  .58779  .70711  .80902  +R26    
                  122-        +R26    .89101  .95106  .98769  1.0     .98769  .95106  .89101  .80902          
                  123-        RADMTX  27      .0      .15643  .30902  .45399  .58779  .70711  .80902  +R27    
                  124-        +R27    .89101  .95106  .98769  1.0     .98769  .95106  .89101                  
                  125-        RADMTX  28      .0      .15643  .30902  .45399  .58779  .70711  .80902  +R28    
                  126-        +R28    .89101  .95106  .98769  1.0     .98769  .95106                          
                  127-        RADMTX  29      .0      .15643  .30902  .45399  .58779  .70711  .80902  +R29    
                  128-        +R29    .89101  .95106  .98769  1.0     .98769                                  
                  129-        RADMTX  30      .0      .15643  .30902  .45399  .58779  .70711  .80902  +R30    
                  130-        +R30    .89101  .95106  .98769  1.0                                             
                  131-        RADMTX  31      .0      .15643  .30902  .45399  .58779  .70711  .80902  +R31    
                  132-        +R31    .89101  .95106  .98769                                                  
                  133-        RADMTX  32      .0      .15643  .30902  .45399  .58779  .70711  .80902  +R32    
                  134-        +R32    .89101  .95106                                                          
                  135-        RADMTX  33      .0      .15643  .30902  .45399  .58779  .70711  .80902  +R33    
                  136-        +R33    .89101                                                                  
                  137-        RADMTX  34      .0      .15643  .30902  .45399  .58779  .70711  .80902          
                  138-        RADMTX  35      .0      .15643  .30902  .45399  .58779  .70711                  
                  139-        RADMTX  36      .0      .15643  .30902  .45399  .58779                          
                  140-        RADMTX  37      .0      .15643  .30902  .45399                                  
                  141-        RADMTX  38      .0      .15643  .30902                                          
1     NONLINEAR RADIATION AND CONDUCTION OF A CYLINDER                      /    95 SUN SOLARIS NASTRAN    / MAY 17, 95 / PAGE     9
      NASTRAN DEMONSTRATION PROBLEM NO. D03-06-1A                                                                                   

                                                                                                                                    

                                                  S O R T E D   B U L K    D A T A    E C H O                                       
                     CARD                                                                                                           
                     COUNT        ---1--- +++2+++ ---3--- +++4+++ ---5--- +++6+++ ---7--- +++8+++ ---9--- +++10+++                  
                  142-        RADMTX  39      .0      .15643                                                  
                  143-        TEMPD   201     200.0                                                           
                              ENDDATA
1     NONLINEAR RADIATION AND CONDUCTION OF A CYLINDER                      /    95 SUN SOLARIS NASTRAN    / MAY 17, 95 / PAGE    10
      NASTRAN DEMONSTRATION PROBLEM NO. D03-06-1A                                                                                   
0                                                                                                                                   
0         COSMIC / NASTRAN DMAP COMPILER - SOURCE LISTING                                                                           
                                                                                                                                    
                                                                                                                                    

 *** USER POTENTIALLY FATAL MESSAGE  10,
                              POSSIBLE ERROR IN DMAP INSTRUCTION PLTSET     INSTRUCTION NO.  73
     DEFAULT OPTION FOR INPUT DATA BLOCKS - MAKE SURE MISSING BLOCKS ARE NOT REQUIRED.
1     NONLINEAR RADIATION AND CONDUCTION OF A CYLINDER                      /    95 SUN SOLARIS NASTRAN    / MAY 17, 95 / PAGE    11
      NASTRAN DEMONSTRATION PROBLEM NO. D03-06-1A                                                                                   
0                                                                                                                                   
0*** USER INFORMATION MESSAGES FROM RESEQUENCING PROCESSOR - BANDIT     (CRI= 1,  MTH= 3,  MPC= 0,  DEP=-1,  PCH=-1)

                               BEFORE RESEQUENCING - - -
                                        BANDWIDTH           20
                                        PROFILE             57
                                        MAX WAVEFRONT        3
                                        AVG WAVEFRONT    2.850
                                        RMS WAVEFRONT    2.890
                                        RMS BANDWIDTH    4.863

                               AFTER RESEQUENCING BY GIBBS-POOLE-STOCKMEYER (GPS) ALGORITHM - - -
                                        BANDWIDTH            3
                                        PROFILE             57
                                        MAX WAVEFRONT        3
                                        AVG WAVEFRONT    2.850
                                        RMS WAVEFRONT    2.890
                                        RMS BANDWIDTH    2.890


                                                     *** BANDIT SUMMARY ***

                                                                        BEFORE     AFTER
                                        BANDWIDTH (B)                       20        20
                                        PROFILE (P)                         57        57
                                        MAXIMUM WAVEFRONT (C-MAX)            3         3
                                        AVERAGE WAVEFRONT (C-AVG)        2.850     2.850
                                        RMS WAVEFRONT (C-RMS)            2.890     2.890
                                        RMS BANDWITCH (B-RMS)            4.863     4.863
                                        NUMBER OF GRID POINTS (N)                     20
                                        NUMBER OF ELEMENTS (NON-RIGID)                20
                                        NUMBER OF RIGID ELEMENTS PROCESSED*            0
                                        NUMBER OF MPC  EQUATIONS PROCESSED*            0
                                        NUMBER OF COMPONENTS                           1
                                        MAXIMUM NODAL DEGREE                           2
                                        MINIMUM NODAL DEGREE                           2
                                        NUMBER OF UNIQUE EDGES                        20
                                        MATRIX DENSITY, PERCENT                   15.000
                                        NUMBER OF POINTS OF ZERO DEGREE                0
                                        BANDIT OPEN CORE                         1998969
                                        CRITERION*                         RMS WAVEFRONT
                                        METHOD USED*                                 GPS

                               (* THESE DEFAULT OPTIONS CAN BE OVERRIDDEN BY THE NASTRAN CARD)


                               BANDIT FINDS GRID POINT RE-SEQUENCING NOT NECESSARY
0         **NO ERRORS FOUND - EXECUTE NASTRAN PROGRAM**
0*** USER INFORMATION MESSAGE 238, TURN DIAG 38 ON FOR ADDITIONAL ELEMENT PROCESSING INFORMATION

0*** USER INFORMATION MESSAGE 3113,
     EMG MODULE PROCESSING DOUBLE PRECISION HBDY     ELEMENTS (ELEMENT TYPE  52) STARTING WITH ID       21
0*** USER INFORMATION MESSAGE 3113,
     EMG MODULE PROCESSING DOUBLE PRECISION ROD      ELEMENTS (ELEMENT TYPE   1) STARTING WITH ID        1
0*** USER INFORMATION MESSAGE 2361,   20 ELEMENTS HAVE A TOTAL VIEW FACTOR (FA/A) LESS THAN 0.99 , ENERGY MAY BE LOST TO SPACE.
0*** USER INFORMATION MESSAGE 3028      B =   20     BBAR =    3
                                        C =   21     CBAR =   36
                                        R =   22
0*** USER INFORMATION MESSAGE 3027, UNSYMMETRIC  REAL    DECOMPOSITION OF DATA BLOCK SCRATCH2 (N =    40)
     TIME ESTIMATE =        0 SECONDS
0*** USER INFORMATION MESSAGE 3028      B =   10     BBAR =    3
                                        C =   11     CBAR =   16
                                        R =   12
0*** USER INFORMATION MESSAGE 3027, UNSYMMETRIC  REAL    DECOMPOSITION OF DATA BLOCK HKFF     (N =    20)
     TIME ESTIMATE =        0 SECONDS
0*** USER INFORMATION MESSAGE 3086, ENTERING SSGHT EXIT MODE BY REASON NUMBER  1 ( NORMAL CONVERGENCE )
1     NONLINEAR RADIATION AND CONDUCTION OF A CYLINDER                      /    95 SUN SOLARIS NASTRAN    / MAY 17, 95 / PAGE    12
      NASTRAN DEMONSTRATION PROBLEM NO. D03-06-1A                                                                                   
0                                                                                                                                   
 
                                              T E M P E R A T U R E   V E C T O R
 
      POINT ID.   TYPE      ID   VALUE     ID+1 VALUE    ID+2 VALUE     ID+3 VALUE     ID+4 VALUE     ID+5 VALUE
             1      S      1.590522E+02   1.395644E+02   1.073669E+02   6.610048E+01   2.803627E+01   5.140508E+00                  
             7      S     -4.874969E+00  -9.272478E+00  -1.108667E+01  -1.157623E+01  -1.108665E+01  -9.272463E+00                  
            13      S     -4.874965E+00   5.140494E+00   2.803628E+01   6.610052E+01   1.073668E+02   1.395643E+02                  
            19      S      1.590522E+02   1.654979E+02                                                                              
1     NONLINEAR RADIATION AND CONDUCTION OF A CYLINDER                      /    95 SUN SOLARIS NASTRAN    / MAY 17, 95 / PAGE    13
      NASTRAN DEMONSTRATION PROBLEM NO. D03-06-1A                                                                                   
0                                                                                                                                   
 
                                                     L O A D   V E C T O R
 
      POINT ID.   TYPE      ID   VALUE     ID+1 VALUE    ID+2 VALUE     ID+3 VALUE     ID+4 VALUE     ID+5 VALUE
             1      S      5.072616E+02   4.315025E+02   3.135049E+02   1.648192E+02   4.223842E+01                                 
            15      S      4.223851E+01   1.648192E+02   3.135048E+02   4.315026E+02   5.072617E+02   5.333665E+02                  
1     NONLINEAR RADIATION AND CONDUCTION OF A CYLINDER                      /    95 SUN SOLARIS NASTRAN    / MAY 17, 95 / PAGE    14
      NASTRAN DEMONSTRATION PROBLEM NO. D03-06-1A                                                                                   
0                                                                                                                                   
 
                                 H E A T   F L O W   I N T O   H B D Y   E L E M E N T S   (CHBDY)
 
 
                          ELEMENT-ID      APPLIED-LOAD       CONVECTION       RADIATION           TOTAL
                                  21      5.333665E+02      0.000000E+00     -3.315627E+02      2.018038E+02
                                  22      4.811568E+02      0.000000E+00     -3.051971E+02      1.759596E+02
                                  23      3.818482E+02      0.000000E+00     -2.573989E+02      1.244493E+02
                                  24      2.451616E+02      0.000000E+00     -1.992350E+02      4.592661E+01
                                  25      8.447684E+01      0.000000E+00     -1.473970E+02     -6.292012E+01
                                  26      0.000000E+00      0.000000E+00     -1.144566E+02     -1.144566E+02
                                  27      0.000000E+00      0.000000E+00     -9.917615E+01     -9.917615E+01
                                  28      0.000000E+00      0.000000E+00     -9.305458E+01     -9.305458E+01
                                  29      0.000000E+00      0.000000E+00     -9.051762E+01     -9.051762E+01
                                  30      0.000000E+00      0.000000E+00     -8.959206E+01     -8.959206E+01
                                  31      0.000000E+00      0.000000E+00     -8.959200E+01     -8.959200E+01
                                  32      0.000000E+00      0.000000E+00     -9.051765E+01     -9.051765E+01
                                  33      0.000000E+00      0.000000E+00     -9.305452E+01     -9.305452E+01
                                  34      0.000000E+00      0.000000E+00     -9.917619E+01     -9.917619E+01
                                  35      0.000000E+00      0.000000E+00     -1.144567E+02     -1.144567E+02
                                  36      8.447701E+01      0.000000E+00     -1.473970E+02     -6.292004E+01
                                  37      2.451614E+02      0.000000E+00     -1.992348E+02      4.592654E+01
                                  38      3.818483E+02      0.000000E+00     -2.573989E+02      1.244493E+02
                                  39      4.811570E+02      0.000000E+00     -3.051972E+02      1.759598E+02
                                  40      5.333663E+02      0.000000E+00     -3.315626E+02      2.018037E+02
                                  41      0.000000E+00      0.000000E+00     -1.621102E+02     -1.621102E+02
                                  42      0.000000E+00      0.000000E+00     -1.353455E+02     -1.353455E+02
                                  43      0.000000E+00      0.000000E+00     -8.681474E+01     -8.681474E+01
                                  44      0.000000E+00      0.000000E+00     -2.770469E+01     -2.770469E+01
                                  45      0.000000E+00      0.000000E+00      2.514783E+01      2.514783E+01
                                  46      0.000000E+00      0.000000E+00      5.904066E+01      5.904066E+01
                                  47      0.000000E+00      0.000000E+00      7.512827E+01      7.512827E+01
                                  48      0.000000E+00      0.000000E+00      8.187199E+01      8.187199E+01
                                  49      0.000000E+00      0.000000E+00      8.482950E+01      8.482950E+01
                                  50      0.000000E+00      0.000000E+00      8.596673E+01      8.596673E+01
                                  51      0.000000E+00      0.000000E+00      8.596679E+01      8.596679E+01
                                  52      0.000000E+00      0.000000E+00      8.482946E+01      8.482946E+01
                                  53      0.000000E+00      0.000000E+00      8.187205E+01      8.187205E+01
                                  54      0.000000E+00      0.000000E+00      7.512822E+01      7.512822E+01
                                  55      0.000000E+00      0.000000E+00      5.904061E+01      5.904061E+01
                                  56      0.000000E+00      0.000000E+00      2.514773E+01      2.514773E+01
                                  57      0.000000E+00      0.000000E+00     -2.770446E+01     -2.770446E+01
                                  58      0.000000E+00      0.000000E+00     -8.681480E+01     -8.681480E+01
                                  59      0.000000E+00      0.000000E+00     -1.353455E+02     -1.353455E+02
                                  60      0.000000E+00      0.000000E+00     -1.621101E+02     -1.621101E+02
1     NONLINEAR RADIATION AND CONDUCTION OF A CYLINDER                      /    95 SUN SOLARIS NASTRAN    / MAY 17, 95 / PAGE    15
      NASTRAN DEMONSTRATION PROBLEM NO. D03-06-1A                                                                                   
0                                                                                                                                   
 
                   F I N I T E   E L E M E N T   T E M P E R A T U R E   G R A D I E N T S   A N D   F L U X E S
 
    ELEMENT-ID   EL-TYPE        X-GRADIENT       Y-GRADIENT       Z-GRADIENT        X-FLUX           Y-FLUX           Z-FLUX
             1    ROD         -1.030096E+01                                       9.734412E+02
             2    ROD         -3.114381E+01                                       2.943090E+03
             3    ROD         -5.145529E+01                                       4.862525E+03
             4    ROD         -6.594833E+01                                       6.232117E+03
             5    ROD         -6.083092E+01                                       5.748521E+03
             6    ROD         -3.659003E+01                                       3.457758E+03
             7    ROD         -1.600587E+01                                       1.512554E+03
             8    ROD         -7.027716E+00                                       6.641191E+02
             9    ROD         -2.899282E+00                                       2.739821E+02
            10    ROD         -7.823830E-01                                       7.393519E+01
            11    ROD          7.824135E-01                                      -7.393807E+01
            12    ROD          2.899276E+00                                      -2.739816E+02
            13    ROD          7.027702E+00                                      -6.641178E+02
            14    ROD          1.600583E+01                                      -1.512551E+03
            15    ROD          3.659004E+01                                      -3.457759E+03
            16    ROD          6.083096E+01                                      -5.748525E+03
            17    ROD          6.594830E+01                                      -6.232114E+03
            18    ROD          5.145525E+01                                      -4.862521E+03
            19    ROD          3.114383E+01                                      -2.943092E+03
            20    ROD          1.030101E+01                                      -9.734454E+02




                                        * * * END OF JOB * * *
1
 JOB TITLE =  NONLINEAR RADIATION AND CONDUCTION OF A CYLINDER                   
 DATE:  5/17/95
 END TIME: 15:43:25
 TOTAL WALL CLOCK TIME      2 SEC.
 
