     NASTRAN FILES=PLT2                                                              






                                  ****
                                *      *
                               *        *
                               *  N A S T R A N
                               *        *
                                *      *
                                  ****


                             SUN COMPUTER SYSTEMS    
                                SOLARIS VERSION

                          SYSTEM RELEASE -  1995 ED.

                                DISTRIBUTED BY

         COMPUTER SOFTWARE MANAGEMENT AND INFORMATION CENTER (COSMIC)
                 UNIVERSITY OF GEORGIA, ATHENS, GEORGIA 30602
                 PHONE: (706)542-3265      FAX: (706)542-4807
1                                                                           /    95 SUN SOLARIS NASTRAN    / MAY 17, 95 / PAGE     2
                                                                                                                                    
0                                                                                                                                   
                                                                                                         
                                                                                                         
                         INSTALLATION CENTER USER INFORMATION GIVEN IN THIS SECTION                      
                                                                                                         
                                     *********************************************                       
                                     *                                           *                       
                                     *  PLEASE READ THE COMMENT IN DEMO PROBLEM  *                       
                                     *  D01002A ABOUT SYSTEM TIMING CONSTANTS    *                       
                                     *                                           *                       
                                     *********************************************                       
                                                                                                         
                         ===X=    TOP OF PAGE REQUEST IF 'X' IS REPLACED BY '='                          
                                                                                                         
1                                                                           /    95 SUN SOLARIS NASTRAN    / MAY 17, 95 / PAGE     3
                                                                                                                                    
0                                                                                                                                   
0*** USER INFORMATION MESSAGE 225, GINO TIME CONSTANTS ARE BEING COMPUTED
     (SEE NASINFO FILE FOR ELIMINATION OF THESE COMPUTATIONS)
1                                                                           /    95 SUN SOLARIS NASTRAN    / MAY 17, 95 / PAGE     4
                                                                                                                                    
0        N A S T R A N    E X E C U T I V E    C O N T R O L    D E C K    E C H O                                                  
0                                                                                                                                   
                                                                                                                                    
                                                                                                                                    
     ID    D03014A,NASTRAN                                                           
     ALTER 1 $                                                                       
     PARAM   //C,N,NOP/V,N,TRUE=-1 $                                                 
     INPUT,  ,GEOM2,,,/G1,G2,,G4,/C,N,3/C,N,1 $                                      
     EQUIV   G1,GEOM1/TRUE / G2,GEOM2/TRUE / G4,GEOM4/TRUE $                         
     ENDALTER $                                                                      
     APP      DISPLACEMENT                                                           
     SOL      3,1                                                                    
     DIAG     14                                                                     
     TIME     65                                                                     
     CEND                                                                            


0*** USER INFORMATION MESSAGE, TURN DIAG 48 ON FOR NASTRAN RELEASE NEWS, DIAG DEFINITION, NEW DMAP
         MODULES AND NEW BULKDATA CARDS INFORMATION
1             VIBRATION OF A 20 X 40 HALF PLATE                             /    95 SUN SOLARIS NASTRAN    / MAY 17, 95 / PAGE     5
      NASTRAN DEMONSTRATION PROBLEM NO. D03-01-4A                                                                                   
0                                                                                                                                   
0                                        C A S E    C O N T R O L   D E C K   E C H O                                               
                 CARD                                                                                                               
                 COUNT                                                                                                              
                  1      TITLE    =         VIBRATION OF A 20 X 40 HALF PLATE                            
                  2      SUBTITLE = NASTRAN DEMONSTRATION PROBLEM NO. D03-01-4A                          
                  3      $                                                                               
                  4        METHOD = 20 $ FEER - NO MODES                                                 
                  5           SPC = 20040   $ INPUT VERSION                                              
                  6      $                  ROOTS ARE AT THE FOLLOWING FREQUENCIES (THEORETICAL)         
                  7      $       MODE    M       N       FREQ                                            
                  8      $       1       1       1       9.068997E-1                                     
                  9      $       2       1       2       2.267249                                        
                 10      $       5       1       3       4.534498                                        
                 11      $       6       3       1       4.534498                                        
                 12      $       7       3       2       5.894848                                        
                 13      $       9       1       4       7.708647                                        
                 14      $                                                                               
                 15      OUTPUT                                                                          
                 16         SET 1 = 1 THRU 21, 64 THRU 84, 127 THRU 147, 190 THRU 210,                   
                 17                 253 THRU 273, 316 THRU 336, 379 THRU 399, 442 THRU 462,              
                 18                 505 THRU 525, 568 THRU 588, 631 THRU 651, 694 THRU 714,              
                 19                 757 THRU 777, 820 THRU 840, 841 THRU 861                             
                 20         DISPLACEMENTS = 1                                                            
                 21      $                                                                               
                 22      PLOTID = NASTRAN DEMONSTRATION PROBLEM NO. D03-01-4A                            
                 23      OUTPUT(PLOT)                                                                    
                 24      PLOTTER NASTPLT                                                                 
                 25              SET 1 INCLUDE PLOTEL                                                    
                 26              SET 2 INCLUDE QUAD1                                                     
                 27              MAXIMUM DEFORMATION  1.0                                                
                 28              FIND SCALE, ORIGIN 10                                                   
                 29      PTITLE = ALL QUADS IN THE PLATE                                                 
                 30      PLOT ORIGIN 10, SET 2, LABELS                                                   
                 31              FIND SCALE, ORIGIN 11                                                   
                 32      PTITLE = MODE SHAPES USING PLOTEL ELEMENTS                                      
                 33      PLOT MODAL DEFORMATION 1, ORIGIN 11, SHAPE                                      
                 34      BEGIN BULK                                                                      


                        (NO. OF UNSORTED BULK DATA CARDS READ =    72, INCLUDING   0 COMMENT CARDS)
0*** USER INFORMATION MESSAGE 207, BULK DATA DECK IS NOT SORTED. NASTRAN WILL RE-ORDER THE INPUT DECK.
1             VIBRATION OF A 20 X 40 HALF PLATE                             /    95 SUN SOLARIS NASTRAN    / MAY 17, 95 / PAGE     6
      NASTRAN DEMONSTRATION PROBLEM NO. D03-01-4A                                                                                   
0                                                                                                                                   
0                                                 S O R T E D   B U L K    D A T A    E C H O                                       
                     CARD                                                                                                           
                     COUNT        ---1--- +++2+++ ---3--- +++4+++ ---5--- +++6+++ ---7--- +++8+++ ---9--- +++10+++                  
                    1-        EIGR    2       INV     .85     .89     1       1       0               CSIMPL-I
                    2-        +SIMPL-IMAX                                                                     
                    3-        EIGR    3       INV     .89     1.0     1       3       0               +EIG3-I 
                    4-        +EIG3-I MAX                                                                     
                    5-        EIGR    4       DET     .89     1.0     1       1       0               +EIG4-D 
                    6-        +EIG4-D MAX                                                                     
                    7-        EIGR    5       INV     .89     2.4     1       3       0               +EIG5-2 
                    8-        +EIG5-2 MAX                                                                     
                    9-        EIGR    6       DET     .89     2.4     2       2       0               +EIG6-2 
                   10-        +EIG6-2 MAX                                                                     
                   11-        EIGR    7       INV     .89     6.1     5       5       0               +EIG7-5 
                   12-        +EIG7-5 MAX                                                                     
                   13-        EIGR    9       INV     .89     14.5    4       10      0               +EIG9-10
                   14-        +EIG9-10MAX                                                                     
                   15-        EIGR    11      INV     .89     29.0    20      20      0               +EIG1120
                   16-        +EIG1120MAX                                                                     
                   17-        EIGR    20      FEER    .87                     1                       +FEER   
                   18-        +FEER   MAX                                                                     
                   19-        MAT1    2       3.0+7           .300    200.0                           +MAT1   
                   20-        +MAT1   30000.  28000.                                                          
                   21-        PARAM   GRDPNT  421                                                             
                   22-        PLOTEL  1000    1       21              1001    21      861                     
                   23-        PLOTEL  1002    861     841             1003    841     757                     
                   24-        PLOTEL  1004    757     673             1005    673     589                     
                   25-        PLOTEL  1006    589     505             1007    505     421                     
                   26-        PLOTEL  1008    421     337             1009    337     253                     
                   27-        PLOTEL  1010    253     169             1011    169     85                      
                   28-        PLOTEL  1012    85      1               1013    5       89                      
                   29-        PLOTEL  1014    89      173             1015    173     257                     
                   30-        PLOTEL  1016    257     341             1017    341     425                     
                   31-        PLOTEL  1018    425     509             1019    509     593                     
                   32-        PLOTEL  1020    593     677             1021    677     761                     
                   33-        PLOTEL  1022    761     845             1023    849     765                     
                   34-        PLOTEL  1024    765     681             1025    681     597                     
                   35-        PLOTEL  1026    597     513             1027    513     429                     
                   36-        PLOTEL  1028    429     345             1029    345     261                     
                   37-        PLOTEL  1030    261     177             1031    177     93                      
                   38-        PLOTEL  1032    93      9               1033    13      97                      
                   39-        PLOTEL  1034    97      181             1035    181     265                     
                   40-        PLOTEL  1036    265     349             1037    349     433                     
                   41-        PLOTEL  1038    433     517             1039    517     601                     
                   42-        PLOTEL  1040    601     685             1041    685     769                     
                   43-        PLOTEL  1042    769     853             1043    857     773                     
                   44-        PLOTEL  1044    773     689             1045    689     605                     
                   45-        PLOTEL  1046    605     521             1047    521     437                     
                   46-        PLOTEL  1048    437     353             1049    353     269                     
                   47-        PLOTEL  1050    269     185             1051    185     101                     
1             VIBRATION OF A 20 X 40 HALF PLATE                             /    95 SUN SOLARIS NASTRAN    / MAY 17, 95 / PAGE     7
      NASTRAN DEMONSTRATION PROBLEM NO. D03-01-4A                                                                                   

                                                                                                                                    

                                                  S O R T E D   B U L K    D A T A    E C H O                                       
                     CARD                                                                                                           
                     COUNT        ---1--- +++2+++ ---3--- +++4+++ ---5--- +++6+++ ---7--- +++8+++ ---9--- +++10+++                  
                   48-        PLOTEL  1052    101     17              1053    105     101                     
                   49-        PLOTEL  1054    101     97              1055    97      93                      
                   50-        PLOTEL  1056    93      89              1057    89      85                      
                   51-        PLOTEL  1058    169     173             1059    173     177                     
                   52-        PLOTEL  1060    177     181             1061    181     185                     
                   53-        PLOTEL  1062    185     189             1063    273     269                     
                   54-        PLOTEL  1064    269     265             1065    265     261                     
                   55-        PLOTEL  1066    261     257             1067    257     253                     
                   56-        PLOTEL  1068    337     341             1069    341     345                     
                   57-        PLOTEL  1070    345     349             1071    349     353                     
                   58-        PLOTEL  1072    353     357             1073    441     437                     
                   59-        PLOTEL  1074    437     433             1075    433     429                     
                   60-        PLOTEL  1076    429     425             1077    425     421                     
                   61-        PLOTEL  1078    505     509             1079    509     513                     
                   62-        PLOTEL  1080    513     517             1081    517     521                     
                   63-        PLOTEL  1082    521     525             1083    609     605                     
                   64-        PLOTEL  1084    605     601             1085    601     597                     
                   65-        PLOTEL  1086    597     593             1087    593     589                     
                   66-        PLOTEL  1088    673     677             1089    677     681                     
                   67-        PLOTEL  1090    681     685             1091    685     689                     
                   68-        PLOTEL  1092    689     693             1093    777     773                     
                   69-        PLOTEL  1094    773     769             1095    769     765                     
                   70-        PLOTEL  1096    765     761             1097    761     757                     
                   71-        PQUAD1  101     2       1.0     2       .0833333                6.04393 +PQUAD1 
                   72-        +PQUAD1 .5      .0                                                              
                              ENDDATA
0*** USER INFORMATION MESSAGE, THE FOLLOWING PROPERTY IDS ARE PRESENT BUT NOT USED -

           101
1             VIBRATION OF A 20 X 40 HALF PLATE                             /    95 SUN SOLARIS NASTRAN    / MAY 17, 95 / PAGE     8
      NASTRAN DEMONSTRATION PROBLEM NO. D03-01-4A                                                                                   
0                                                                                                                                   
0         COSMIC / NASTRAN DMAP COMPILER - SOURCE LISTING                                                                           
                                                                                                                                    
                                                                                                                                    
0  OPTIONS IN EFFECT GO      ERR=2   LIST    NODECK  NOREF   NOOSCAR 
   -----------------


       1  BEGIN    DISP 03 - NORMAL MODES ANALYSIS - APR. 1995 $                  

       1  PARAM   //C,N,NOP/V,N,TRUE=-1 $                                         

       1  INPUT,  ,GEOM2,,,/G1,G2,,G4,/C,N,3/C,N,1 $                              

       1  EQUIV   G1,GEOM1/TRUE / G2,GEOM2/TRUE / G4,GEOM4/TRUE $                 

       2  PRECHK   ALL $                                                          

       3  FILE     LAMA=APPEND/PHIA=APPEND $                                      

       4  PARAM    //*MPY*/CARDNO/0/0 $                                           

       5  GP1      GEOM1,GEOM2,/GPL,EQEXIN,GPDT,CSTM,BGPDT,SIL/S,N,LUSET/         
                   NOGPDT/ALWAYS=-1 $                                             

       6  ANISOP   GEOM1,EPT,BGPDT,EQEXIN,MPT/MPTA/S,N,ISOP $                     

       7  EQUIV    MPTA,MPT/ISOP $                                                

       8  PLTTRAN  BGPDT,SIL/BGPDP,SIP/LUSET/S,N,LUSEP $                          

       9  GP2      GEOM2,EQEXIN/ECT $                                             

      10  PARAML   PCDB//*PRES*////JUMPPLOT $                                     

      11  PURGE    PLTSETX,PLTPAR,GPSETS,ELSETS/JUMPPLOT $                        

      12  COND     P1,JUMPPLOT $                                                  

      13  PLTSET   PCDB,EQEXIN,ECT,EPT/PLTSETX,PLTPAR,GPSETS,ELSETS/S,N,NSIL/     
                   S,N,JUMPPLOT $                                                 

      14  PRTMSG   PLTSETX// $                                                    

      15  PARAM    //*MPY*/PLTFLG/1/1 $                                           

      16  PARAM    //*MPY*/PFILE/0/0 $                                            

      17  COND     P1,JUMPPLOT $                                                  
1             VIBRATION OF A 20 X 40 HALF PLATE                             /    95 SUN SOLARIS NASTRAN    / MAY 17, 95 / PAGE     9
      NASTRAN DEMONSTRATION PROBLEM NO. D03-01-4A                                                                                   

                                                                                                                                    

          COSMIC / NASTRAN DMAP COMPILER - SOURCE LISTING                                                                           
                                                                                                                                    
                                                                                                                                    

      18  PLOT     PLTPAR,GPSETS,ELSETS,CASECC,BGPDT,EQEXIN,SIL,,ECT,,,,/PLOTX1/  
                   NSIL/LUSET/S,N,JUMPPLOT/S,N,PLTFLG/S,N,PFILE  $                

      19  PRTMSG   PLOTX1//$                                                      

      20  LABEL    P1 $                                                           

      21  GP3      GEOM3,EQEXIN,GEOM2/,GPTT/NOGRAV $                              

      22  TA1      ECT,EPT,BGPDT,SIL,GPTT,CSTM,MPT,EQEXIN/EST,GEI,GPECT,,,MPTX,   
                   PCOMPS,EPTX/LUSET/S,N,NOSIMP/1/S,N,NOGENL/GENEL/S,N,COMPS $    

      23  EQUIV    MPTX,MPT/COMPS/EPTX,EPT/COMPS $                                

      24  COND     ERROR4,NOSIMP $                                                

      25  PARAM    //*ADD*/NOKGGX/1/0 $                                           

      26  PARAM    //*ADD*/NOMGG/1/0 $                                            

      27  EMG      EST,CSTM,MPT,DIT,GEOM2,/KELM,KDICT,MELM,MDICT,,,/S,N,NOKGGX/   
                   S,N,NOMGG////C,Y,COUPMASS/C,Y,CPBAR/C,Y,CPROD/C,Y,CPQUAD1/     
                   C,Y,CPQUAD2/C,Y,CPTRIA1/C,Y,CPTRIA2/C,Y,CPTUBE/C,Y,CPQDPLT/    
                   C,Y,CPTRPLT/C,Y,CPTRBSC/C,Y,VOLUME/C,Y,SURFACE $               

      28  PURGE    KGGX/NOKGGX $                                                  

      29  COND     JMPKGG,NOKGGX $                                                

      30  EMA      GPECT,KDICT,KELM/KGGX $                                        

      31  LABEL    JMPKGG $                                                       

      32  COND     ERROR1,NOMGG $                                                 

      33  EMA      GPECT,MDICT,MELM/MGG/-1/C,Y,WTMASS=1.0 $                       

      34  PURGE    MDICT,MELM/ALWAYS $                                            

      35  COND     LGPWG,GRDPNT $                                                 

      36  GPWG     BGPDP,CSTM,EQEXIN,MGG/OGPWG/V,Y,GRDPNT=-1/C,Y,WTMASS $         

      37  OFP      OGPWG,,,,,//S,N,CARDNO $                                       

      38  LABEL    LGPWG $                                                        
1             VIBRATION OF A 20 X 40 HALF PLATE                             /    95 SUN SOLARIS NASTRAN    / MAY 17, 95 / PAGE    10
      NASTRAN DEMONSTRATION PROBLEM NO. D03-01-4A                                                                                   

                                                                                                                                    

          COSMIC / NASTRAN DMAP COMPILER - SOURCE LISTING                                                                           
                                                                                                                                    
                                                                                                                                    

      39  EQUIV    KGGX,KGG/NOGENL $                                              

      40  COND     LBL11,NOGENL $                                                 

      41  SMA3     GEI,KGGX/KGG/LUSET/NOGENL/NOSIMP $                             

      42  LABEL    LBL11 $                                                        

      43  GPSTGEN  KGG,SIL/GPST $                                                 

      44  PARAM    //*MPY*/NSKIP/0/0 $                                            

      45  GP4      CASECC,GEOM4,EQEXIN,GPDT,BGPDT,CSTM,GPST/RG,YS,USET,           
                   ASET,OGPST/LUSET/S,N,MPCF1/S,N,MPCF2/S,N,SINGLE/S,N,OMIT/      
                   S,N,REACT/S,N,NSKIP/S,N,REPEAT/S,N,NOSET/S,N,NOL/S,N,NOA/      
                   C,Y,ASETOUT/C,Y,AUTOSPC $                                      

      46  OFP      OGPST,,,,,//S,N,CARDNO $                                       

      47  COND     ERROR3,NOL $                                                   

      48  PURGE    KRR,KLR,DM,MLR,MR/REACT/GM/MPCF1/GO/OMIT/KFS/SINGLE/QG/NOSET $ 

      49  EQUIV    KGG,KNN/MPCF1/MGG,MNN/MPCF1 $                                  

      50  COND     LBL2,MPCF1 $                                                   

      51  MCE1     USET,RG/GM $                                                   

      52  MCE2     USET,GM,KGG,MGG,,/KNN,MNN,, $                                  

      53  LABEL    LBL2 $                                                         

      54  EQUIV    KNN,KFF/SINGLE/MNN,MFF/SINGLE $                                

      55  COND     LBL3,SINGLE $                                                  

      56  SCE1     USET,KNN,MNN,,/KFF,KFS,,MFF,, $                                

      57  LABEL    LBL3  $                                                        

      58  EQUIV    KFF,KAA/OMIT $                                                 

      59  EQUIV    MFF,MAA/OMIT $                                                 

      60  COND     LBL5,OMIT $                                                    
1             VIBRATION OF A 20 X 40 HALF PLATE                             /    95 SUN SOLARIS NASTRAN    / MAY 17, 95 / PAGE    11
      NASTRAN DEMONSTRATION PROBLEM NO. D03-01-4A                                                                                   

                                                                                                                                    

          COSMIC / NASTRAN DMAP COMPILER - SOURCE LISTING                                                                           
                                                                                                                                    
                                                                                                                                    

      61  SMP1     USET,KFF,,,/GO,KAA,KOO,LOO,,,,, $                              

      62  SMP2     USET,GO,MFF/MAA $                                              

      63  LABEL    LBL5 $                                                         

      64  COND     LBL6,REACT $                                                   

      65  RBMG1    USET,KAA,MAA/KLL,KLR,KRR,MLL,MLR,MRR $                         

      66  RBMG2    KLL/LLL $                                                      

      67  RBMG3    LLL,KLR,KRR/DM $                                               

      68  RBMG4    DM,MLL,MLR,MRR/MR $                                            

      69  LABEL    LBL6 $                                                         

      70  DPD      DYNAMICS,GPL,SIL,USET/GPLD,SILD,USETD,,,,,,,EED,EQDYN/         
                   LUSET/LUSETD/NOTFL/NODLT/NOPSDL/NOFRL/                         
                   NONLFT/NOTRL/S,N,NOEED//NOUE $                                 

      71  COND     ERROR2,NOEED $                                                 

      72  PARAM    //*MPY*/NEIGV/1/-1 $                                           

      73  READ     KAA,MAA,MR,DM,EED,USET,CASECC/LAMA,PHIA,MI,OEIGS/*MODES*/      
                   S,N,NEIGV $                                                    

      74  OFP      OEIGS,,,,,//S,N,CARDNO $                                       

      75  COND     FINIS,NEIGV $                                                  

      76  OFP      LAMA,,,,,//S,N,CARDNO $                                        

      77  SDR1     USET,,PHIA,,,GO,GM,,KFS,,/PHIG,,QG/1/*REIG* $                  

      78  COND     NOMPCF,GRDEQ $                                                 

      79  EQMCK    CASECC,EQEXIN,GPL,BGPDT,SIL,USET,KGG,GM,PHIG,LAMA,QG,CSTM/     
                   OQM1/V,Y,OPT=0/V,Y,GRDEQ/-1 $                                  

      80  OFP      OQM1,,,,,//S,N,CARDNO $                                        

      81  LABEL    NOMPCF $                                                       
1             VIBRATION OF A 20 X 40 HALF PLATE                             /    95 SUN SOLARIS NASTRAN    / MAY 17, 95 / PAGE    12
      NASTRAN DEMONSTRATION PROBLEM NO. D03-01-4A                                                                                   

                                                                                                                                    

          COSMIC / NASTRAN DMAP COMPILER - SOURCE LISTING                                                                           
                                                                                                                                    
                                                                                                                                    

      82  SDR2     CASECC,CSTM,MPT,DIT,EQEXIN,SIL,,,BGPDP,LAMA,QG,PHIG,EST,,,     
                   PCOMPS/,OQG1,OPHIG,OES1,OEF1,PPHIG,OES1L,OEF1L/                
                   *REIG*////COMPS $                                              

      83  OFP      OPHIG,OQG1,OEF1,OES1,OEF1L,OES1L//S,N,CARDNO $                 

      84  SCAN     CASECC,OES1,OEF1,OES1L,OEF1L/OESF1,OESF1L/*RF* $               

      85  OFP      OESF1,OESF1L,,,,//S,N,CARDNO $                                 

      86  GPFDR    CASECC,PHIG,KELM,KDICT,ECT,EQEXIN,GPECT,LAMA,/ONRGY1,/*REIG* $ 

      87  OFP      ONRGY1,,,,,//S,N,CARDNO $                                      

      88  PURGE    KDICT,KELM/ALWAYS $                                            

      89  COND     P2,JUMPPLOT $                                                  

      90  PLOT     PLTPAR,GPSETS,ELSETS,CASECC,BGPDT,EQEXIN,SIP,,PPHIG,GPECT,OES1,
                   OES1L,/PLOTX2/NSIL/LUSEP/JUMPPLOT/PLTFLG/S,N,PFILE $           

      91  PRTMSG   PLOTX2// $                                                     

      92  LABEL    P2 $                                                           

      93  JUMP     FINIS $                                                        

      94  LABEL    ERROR1 $                                                       

      95  PRTPARM  //-1/*MODES* $                                                 

      96  LABEL    ERROR2 $                                                       

      97  PRTPARM  //-2/*MODES* $                                                 

      98  LABEL    ERROR3 $                                                       

      99  PRTPARM  //-3/*MODES* $                                                 

     100  LABEL    ERROR4 $                                                       

     101  PRTPARM  //-4/*MODES* $                                                 

     102  LABEL    FINIS $                                                        

     103  PURGE    DUMMY/ALWAYS $                                                 
1             VIBRATION OF A 20 X 40 HALF PLATE                             /    95 SUN SOLARIS NASTRAN    / MAY 17, 95 / PAGE    13
      NASTRAN DEMONSTRATION PROBLEM NO. D03-01-4A                                                                                   

                                                                                                                                    

          COSMIC / NASTRAN DMAP COMPILER - SOURCE LISTING                                                                           
                                                                                                                                    
                                                                                                                                    

     104  END      $                                                              
0          **NO ERRORS FOUND - EXECUTE NASTRAN PROGRAM**
1             VIBRATION OF A 20 X 40 HALF PLATE                             /    95 SUN SOLARIS NASTRAN    / MAY 17, 95 / PAGE    14
      NASTRAN DEMONSTRATION PROBLEM NO. D03-01-4A                                                                                   
0                                                                                                                                   


                    * U T I L I T Y   M O D U L E   I N P U T *


                    INPUT DATA ECHO (DATA READ VIA FORTRAN, REMEMBER TO RIGHT ADJUST)


                    *   1  **   2  **   3  **   4  **   5  **   6  **   7  **   8  **   9  **  10  *



                           20      40 5.0E-01 5.0E-01     126 0.0E+00 0.0E+00
                           35       5      35      34       0       0
0*** USER INFORMATION MESSAGE, PLOT FILE GOES TO PLT2
1             VIBRATION OF A 20 X 40 HALF PLATE                             /    95 SUN SOLARIS NASTRAN    / MAY 17, 95 / PAGE    15
      NASTRAN DEMONSTRATION PROBLEM NO. D03-01-4A                                                                                   
0                                                                                                                                   
                                                  MESSAGES FROM THE PLOT MODULE                                                   





 P L O T T E R    D A T A                                                                                                           
                                                                                                                                    
          THE FOLLOWING PLOTS ARE FOR A NASTPLT MICROFILM PLOTTER WITHOUT TYPING CAPABILITY                                         
                                                                                                                                    
          AN END-OF-FILE MARK FOLLOWS THE LAST PLOT                                                                                 
                                                                                                                                    
          THE FIRST COMMAND FOR EACH PLOT CONTAINS THE PLOT NUMBER                                                                  
                                                                                                                                    
          CSCALE =  1.00                                                                                                            
                                                                                                                                    
          THE FOLLOWING PLOTS ARE REQUESTED ON PAPER ONLY                                                                           
                                                                                                                                    




 E N G I N E E R I N G    D A T A                                                                                                   
                                                                                                                                    
          ORTHOGRAPHIC PROJECTION                                                                                                   
          ROTATIONS (DEGREES) - GAMMA =  34.27, BETA =  23.17, ALPHA =   0.00,  AXES = +X,+Y,+Z, SYMMETRIC                          
          SCALE (OBJECT-TO-PLOT SIZE) = 2.539654E-01                                                                                
                                                                                                                                    
          ORIGIN      10   -   X0 = -4.398808E-01, Y0 = -0.345970E+01     (INCHES)                                                  




                                                  PLOT MODULE MESSAGES CONTINUE                                                     
                                                                                                                                    
                                                 PLOT        1  UNDEFORMED SHAPE                                                    
                                                 ORIGIN     10  USED IN THIS PLOT                                                   
0*** USER INFORMATION MESSAGE 238, TURN DIAG 38 ON FOR ADDITIONAL ELEMENT PROCESSING INFORMATION

1             VIBRATION OF A 20 X 40 HALF PLATE                             /    95 SUN SOLARIS NASTRAN    / MAY 17, 95 / PAGE    16
      NASTRAN DEMONSTRATION PROBLEM NO. D03-01-4A                                                                                   

                                                                                                                                    




0*** USER INFORMATION MESSAGE 3113,
     EMG MODULE PROCESSING DOUBLE PRECISION QUAD1    ELEMENTS (ELEMENT TYPE  19) STARTING WITH ID        1
1             VIBRATION OF A 20 X 40 HALF PLATE                             /    95 SUN SOLARIS NASTRAN    / MAY 17, 95 / PAGE    17
      NASTRAN DEMONSTRATION PROBLEM NO. D03-01-4A                                                                                   
0                                                                                                                                   
 
 
                           O U T P U T   F R O M   G R I D   P O I N T   W E I G H T   G E N E R A T O R
0                                                     REFERENCE POINT =      421
 
 
                                     MO - RIGID BODY MASS MATRIX IN BASIC COORDINATE SYSTEM
                ***                                                                                             ***
                *  4.12087860D+04  0.00000000D+00  0.00000000D+00  0.00000000D+00  0.00000000D+00  0.00000000D+00 *
                *  0.00000000D+00  4.12087860D+04  0.00000000D+00  0.00000000D+00  0.00000000D+00  2.06043930D+05 *
                *  0.00000000D+00  0.00000000D+00  4.12087860D+04  0.00000000D+00 -2.06043930D+05  0.00000000D+00 *
                *  0.00000000D+00  0.00000000D+00  0.00000000D+00  1.37534323D+06  0.00000000D+00  0.00000000D+00 *
                *  0.00000000D+00  0.00000000D+00 -2.06043930D+05  0.00000000D+00  1.37534323D+06  0.00000000D+00 *
                *  0.00000000D+00  2.06043930D+05  0.00000000D+00  0.00000000D+00  0.00000000D+00  2.75068647D+06 *
                ***                                                                                             ***
                                        S - TRANSFORMATION MATRIX FOR SCALAR MASS PARTITION
                                        ***                                             ***
                                        *  1.00000000D+00  0.00000000D+00  0.00000000D+00 *
                                        *  0.00000000D+00  1.00000000D+00  0.00000000D+00 *
                                        *  0.00000000D+00  0.00000000D+00  1.00000000D+00 *
                                        ***                                             ***
                         DIRECTION
                    MASS AXIS SYSTEM (S)       MASS                 X-C.G.           Y-C.G.           Z-C.G.
                            X            4.120878601D+04      0.000000000D+00  0.000000000D+00  0.000000000D+00
                            Y            4.120878601D+04      5.000000000D+00  0.000000000D+00  0.000000000D+00
                            Z            4.120878601D+04      5.000000000D+00  0.000000000D+00  0.000000000D+00

                                                 I(S) - INERTIAS RELATIVE TO C.G. 
                                      ***                                                 ***
                                      *  1.375343233D+06  0.000000000D+00  0.000000000D+00  *
                                      *  0.000000000D+00  3.451235828D+05  0.000000000D+00  *
                                      *  0.000000000D+00  0.000000000D+00  1.720466816D+06  *
                                      ***                                                 ***
                                                      I(Q) - PRINCIPAL INERTIAS
                                      ***                                                 ***
                                      *  1.375343233D+06                                    *
                                      *                   3.451235828D+05                   *
                                      *                                    1.720466816D+06  *
                                      ***                                                 ***
                                            Q - TRANSFORMATION MATRIX - I(Q) = QT*I(S)*Q
                                      ***                                                 ***
                                      *  1.000000000D+00  0.000000000D+00  0.000000000D+00  *
                                      *  0.000000000D+00  1.000000000D+00  0.000000000D+00  *
                                      *  0.000000000D+00  0.000000000D+00  1.000000000D+00  *
                                      ***                                                 ***
                        0 ROOTS BELOW   2.988121E+01
0*** USER WARNING MESSAGE 2399
     ONLY THE FIRST    4 EIGENSOLUTIONS CLOSEST TO THE SHIFT POINT (F1 OR ZERO) PASS THE FEER ACCURACY TEST FOR EIGENVECTORS.
1             VIBRATION OF A 20 X 40 HALF PLATE                             /    95 SUN SOLARIS NASTRAN    / MAY 17, 95 / PAGE    18
      NASTRAN DEMONSTRATION PROBLEM NO. D03-01-4A                                                                                   

                                                                                                                                    




0*** USER INFORMATION MESSAGE 2392
       11 MORE ACCURATE EIGENSOLUTIONS THAN THE    1 REQUESTED HAVE BEEN FOUND.
     USE DIAG 16 TO DETERMINE ERROR BOUNDS
1             VIBRATION OF A 20 X 40 HALF PLATE                             /    95 SUN SOLARIS NASTRAN    / MAY 17, 95 / PAGE    19
      NASTRAN DEMONSTRATION PROBLEM NO. D03-01-4A                                                                                   
0                                                                                                                                   
 
 
                              E I G E N V A L U E   A N A L Y S I S   S U M M A R Y         (FEER METHOD)
0
0                                       NUMBER OF EIGENVALUES EXTRACTED  . . . . . .        12
0                                       NUMBER OF STARTING POINTS USED . . . . . . .         1
0                                       NUMBER OF STARTING POINT MOVES . . . . . . .         0
0                                       NUMBER OF TRIANGULAR DECOMPOSITIONS  . . . .         1
0                                       TOTAL NUMBER OF VECTOR ITERATIONS  . . . . .        11

0                                       REASON FOR TERMINATION . . . . . . . . . . .         0*

0                                       LARGEST OFF-DIAGONAL MODAL MASS TERM . . . .  0.00E+00
0                                                                              . . .         0
                                                  MODE PAIR . . . . . . . . . .
                                                                               . . .         0
0                                       NUMBER OF OFF-DIAGONAL MODAL MASS
                                             TERMS FAILING CRITERION . . . . . . . .         0

0                                       (* NORMAL TERMINATION              
                                         SEE NASTRAN U.M. VOL II, SECTION 2.3.3)
1             VIBRATION OF A 20 X 40 HALF PLATE                             /    95 SUN SOLARIS NASTRAN    / MAY 17, 95 / PAGE    20
      NASTRAN DEMONSTRATION PROBLEM NO. D03-01-4A                                                                                   
0                                                                                                                                   
 
                                              R E A L   E I G E N V A L U E S

   MODE    EXTRACTION       EIGENVALUE            RADIAN              CYCLIC           GENERALIZED         GENERALIZED
    NO.       ORDER                              FREQUENCY           FREQUENCY            MASS              STIFFNESS

        1         1        3.244568E+01        5.696111E+00        9.065642E-01        1.030220E+04        3.342617E+05             
        2         2        2.027587E+02        1.423934E+01        2.266261E+00        1.030220E+04        2.088860E+06             
        3         3        8.115621E+02        2.848793E+01        4.533995E+00        8.189160E+03        6.646012E+06             
        4         4        1.366727E+03        3.696928E+01        5.883843E+00        1.030219E+04        1.408029E+07             
        5         5        2.348062E+03        4.845681E+01        7.712141E+00        1.030036E+04        2.418588E+07             
        6         6        2.612754E+03        5.111510E+01        8.135221E+00        1.030422E+04        2.692239E+07             
        7         7        5.204400E+03        7.214153E+01        1.148168E+01        5.735026E+03        2.984737E+07             
        8         8        5.691458E+03        7.544175E+01        1.200693E+01        4.943446E+03        2.813541E+07             
        9         9        8.226828E+03        9.070187E+01        1.443565E+01        4.861241E+03        3.999260E+07             
       10        10        1.356558E+04        1.164714E+02        1.853699E+01        2.892032E+03        3.923209E+07             
       11        11        2.680833E+04        1.637325E+02        2.605883E+01        1.446632E+03        3.878178E+07             
       12        12        1.193688E+05        3.454980E+02        5.498771E+01        2.624833E+02        3.133233E+07             
1             VIBRATION OF A 20 X 40 HALF PLATE                             /    95 SUN SOLARIS NASTRAN    / MAY 17, 95 / PAGE    21
      NASTRAN DEMONSTRATION PROBLEM NO. D03-01-4A                                                                                   
0                                                                                                                                   
      EIGENVALUE =  0.324457E+02    (CYCLIC FREQUENCY =  9.065642E-01 HZ)

                                         R E A L   E I G E N V E C T O R   N O .          1
 
      POINT ID.   TYPE          T1             T2             T3             R1             R2             R3
             1      G      0.0            0.0            0.0            1.570447E-01   0.0            0.0                           
             2      G      0.0            0.0            0.0            1.565606E-01   0.0            0.0                           
             3      G      0.0            0.0            0.0            1.551112E-01   0.0            0.0                           
             4      G      0.0            0.0            0.0            1.527056E-01   0.0            0.0                           
             5      G      0.0            0.0            0.0            1.493584E-01   0.0            0.0                           
             6      G      0.0            0.0            0.0            1.450904E-01   0.0            0.0                           
             7      G      0.0            0.0            0.0            1.399279E-01   0.0            0.0                           
             8      G      0.0            0.0            0.0            1.339026E-01   0.0            0.0                           
             9      G      0.0            0.0            0.0            1.270518E-01   0.0            0.0                           
            10      G      0.0            0.0            0.0            1.194177E-01   0.0            0.0                           
            11      G      0.0            0.0            0.0            1.110474E-01   0.0            0.0                           
            12      G      0.0            0.0            0.0            1.019924E-01   0.0            0.0                           
            13      G      0.0            0.0            0.0            9.230857E-02   0.0            0.0                           
            14      G      0.0            0.0            0.0            8.205564E-02   0.0            0.0                           
            15      G      0.0            0.0            0.0            7.129681E-02   0.0            0.0                           
            16      G      0.0            0.0            0.0            6.009841E-02   0.0            0.0                           
            17      G      0.0            0.0            0.0            4.852949E-02   0.0            0.0                           
            18      G      0.0            0.0            0.0            3.666136E-02   0.0            0.0                           
            19      G      0.0            0.0            0.0            2.456721E-02   0.0            0.0                           
            20      G      0.0            0.0            0.0            1.232159E-02   0.0            0.0                           
            21      G      0.0            0.0            0.0            0.0            0.0            0.0                           
            64      G      0.0            0.0            2.334453E-01   1.527056E-01   0.0            0.0                           
            65      G      0.0            0.0            2.327257E-01   1.522348E-01   2.876417E-03   0.0                           
            66      G      0.0            0.0            2.305713E-01   1.508255E-01   5.735101E-03   0.0                           
            67      G      0.0            0.0            2.269952E-01   1.484863E-01   8.558425E-03   0.0                           
            68      G      0.0            0.0            2.220197E-01   1.452316E-01   1.132898E-02   0.0                           
            69      G      0.0            0.0            2.156754E-01   1.410815E-01   1.402970E-02   0.0                           
            70      G      0.0            0.0            2.080013E-01   1.360617E-01   1.664391E-02   0.0                           
            71      G      0.0            0.0            1.990449E-01   1.302029E-01   1.915551E-02   0.0                           
            72      G      0.0            0.0            1.888613E-01   1.235414E-01   2.154901E-02   0.0                           
            73      G      0.0            0.0            1.775132E-01   1.161182E-01   2.380965E-02   0.0                           
            74      G      0.0            0.0            1.650708E-01   1.079791E-01   2.592350E-02   0.0                           
            75      G      0.0            0.0            1.516106E-01   9.917433E-02   2.787752E-02   0.0                           
            76      G      0.0            0.0            1.372157E-01   8.975808E-02   2.965966E-02   0.0                           
            77      G      0.0            0.0            1.219749E-01   7.978844E-02   3.125895E-02   0.0                           
            78      G      0.0            0.0            1.059820E-01   6.932688E-02   3.266551E-02   0.0                           
            79      G      0.0            0.0            8.933567E-02   5.843789E-02   3.387068E-02   0.0                           
            80      G      0.0            0.0            7.213859E-02   4.718861E-02   3.486703E-02   0.0                           
            81      G      0.0            0.0            5.449674E-02   3.564841E-02   3.564841E-02   0.0                           
            82      G      0.0            0.0            3.651890E-02   2.388841E-02   3.621000E-02   0.0                           
            83      G      0.0            0.0            1.831591E-02   1.198114E-02   3.654835E-02   0.0                           
            84      G      0.0            0.0            0.0            0.0            3.666136E-02   0.0                           
           127      G      0.0            0.0            4.539905E-01   1.399279E-01   0.0            0.0                           
           128      G      0.0            0.0            4.525910E-01   1.394965E-01   5.593883E-03   0.0                           
           129      G      0.0            0.0            4.484011E-01   1.382051E-01   1.115328E-02   0.0                           
           130      G      0.0            0.0            4.414467E-01   1.360617E-01   1.664391E-02   0.0                           
1             VIBRATION OF A 20 X 40 HALF PLATE                             /    95 SUN SOLARIS NASTRAN    / MAY 17, 95 / PAGE    22
      NASTRAN DEMONSTRATION PROBLEM NO. D03-01-4A                                                                                   
0                                                                                                                                   
      EIGENVALUE =  0.324457E+02    (CYCLIC FREQUENCY =  9.065642E-01 HZ)

                                         R E A L   E I G E N V E C T O R   N O .          1
 
      POINT ID.   TYPE          T1             T2             T3             R1             R2             R3
           131      G      0.0            0.0            4.317706E-01   1.330793E-01   2.203193E-02   0.0                           
           132      G      0.0            0.0            4.194325E-01   1.292765E-01   2.728411E-02   0.0                           
           133      G      0.0            0.0            4.045085E-01   1.246767E-01   3.236808E-02   0.0                           
           134      G      0.0            0.0            3.870905E-01   1.193081E-01   3.725248E-02   0.0                           
           135      G      0.0            0.0            3.672860E-01   1.132040E-01   4.190721E-02   0.0                           
           136      G      0.0            0.0            3.452171E-01   1.064020E-01   4.630358E-02   0.0                           
           137      G      0.0            0.0            3.210197E-01   9.894395E-02   5.041446E-02   0.0                           
           138      G      0.0            0.0            2.948432E-01   9.087589E-02   5.421452E-02   0.0                           
           139      G      0.0            0.0            2.668489E-01   8.224754E-02   5.768033E-02   0.0                           
           140      G      0.0            0.0            2.372094E-01   7.311212E-02   6.079053E-02   0.0                           
           141      G      0.0            0.0            2.061074E-01   6.352592E-02   6.352592E-02   0.0                           
           142      G      0.0            0.0            1.737346E-01   5.354808E-02   6.586967E-02   0.0                           
           143      G      0.0            0.0            1.402908E-01   4.324009E-02   6.780729E-02   0.0                           
           144      G      0.0            0.0            1.059820E-01   3.266551E-02   6.932688E-02   0.0                           
           145      G      0.0            0.0            7.101975E-02   2.188954E-02   7.041903E-02   0.0                           
           146      G      0.0            0.0            3.561968E-02   1.097861E-02   7.107703E-02   0.0                           
           147      G      0.0            0.0            0.0            0.0            7.129681E-02   0.0                           
           190      G      0.0            0.0            6.494480E-01   1.194177E-01   0.0            0.0                           
           191      G      0.0            0.0            6.474460E-01   1.190496E-01   8.002231E-03   0.0                           
           192      G      0.0            0.0            6.414523E-01   1.179475E-01   1.595512E-02   0.0                           
           193      G      0.0            0.0            6.315037E-01   1.161182E-01   2.380965E-02   0.0                           
           194      G      0.0            0.0            6.176618E-01   1.135730E-01   3.151738E-02   0.0                           
           195      G      0.0            0.0            6.000117E-01   1.103276E-01   3.903080E-02   0.0                           
           196      G      0.0            0.0            5.786625E-01   1.064020E-01   4.630358E-02   0.0                           
           197      G      0.0            0.0            5.537454E-01   1.018204E-01   5.329088E-02   0.0                           
           198      G      0.0            0.0            5.254145E-01   9.661099E-02   5.994962E-02   0.0                           
           199      G      0.0            0.0            4.938442E-01   9.080596E-02   6.623876E-02   0.0                           
           200      G      0.0            0.0            4.592291E-01   8.444110E-02   7.211950E-02   0.0                           
           201      G      0.0            0.0            4.217827E-01   7.755562E-02   7.755562E-02   0.0                           
           202      G      0.0            0.0            3.817360E-01   7.019199E-02   8.251358E-02   0.0                           
           203      G      0.0            0.0            3.393357E-01   6.239560E-02   8.696281E-02   0.0                           
           204      G      0.0            0.0            2.948432E-01   5.421452E-02   9.087589E-02   0.0                           
           205      G      0.0            0.0            2.485330E-01   4.569919E-02   9.422868E-02   0.0                           
           206      G      0.0            0.0            2.006905E-01   3.690211E-02   9.700052E-02   0.0                           
           207      G      0.0            0.0            1.516106E-01   2.787752E-02   9.917433E-02   0.0                           
           208      G      0.0            0.0            1.015960E-01   1.868105E-02   1.007367E-01   0.0                           
           209      G      0.0            0.0            5.095510E-02   9.369408E-03   1.016780E-01   0.0                           
           210      G      0.0            0.0            0.0            0.0            1.019924E-01   0.0                           
           253      G      0.0            0.0            8.090169E-01   9.230857E-02   0.0            0.0                           
           254      G      0.0            0.0            8.065231E-01   9.202401E-02   9.968373E-03   0.0                           
           255      G      0.0            0.0            7.990566E-01   9.117210E-02   1.987529E-02   0.0                           
           256      G      0.0            0.0            7.866638E-01   8.975808E-02   2.965966E-02   0.0                           
           257      G      0.0            0.0            7.694209E-01   8.779067E-02   3.926118E-02   0.0                           
           258      G      0.0            0.0            7.474342E-01   8.528200E-02   4.862064E-02   0.0                           
           259      G      0.0            0.0            7.208394E-01   8.224754E-02   5.768033E-02   0.0                           
           260      G      0.0            0.0            6.898004E-01   7.870600E-02   6.638441E-02   0.0                           
1             VIBRATION OF A 20 X 40 HALF PLATE                             /    95 SUN SOLARIS NASTRAN    / MAY 17, 95 / PAGE    23
      NASTRAN DEMONSTRATION PROBLEM NO. D03-01-4A                                                                                   
0                                                                                                                                   
      EIGENVALUE =  0.324457E+02    (CYCLIC FREQUENCY =  9.065642E-01 HZ)

                                         R E A L   E I G E N V E C T O R   N O .          1
 
      POINT ID.   TYPE          T1             T2             T3             R1             R2             R3
           261      G      0.0            0.0            6.545085E-01   7.467920E-02   7.467920E-02   0.0                           
           262      G      0.0            0.0            6.151813E-01   7.019199E-02   8.251358E-02   0.0                           
           263      G      0.0            0.0            5.720614E-01   6.527202E-02   8.983923E-02   0.0                           
           264      G      0.0            0.0            5.254145E-01   5.994962E-02   9.661099E-02   0.0                           
           265      G      0.0            0.0            4.755282E-01   5.425762E-02   1.027871E-01   0.0                           
           266      G      0.0            0.0            4.227102E-01   4.823110E-02   1.083295E-01   0.0                           
           267      G      0.0            0.0            3.672860E-01   4.190721E-02   1.132040E-01   0.0                           
           268      G      0.0            0.0            3.095974E-01   3.532496E-02   1.173806E-01   0.0                           
           269      G      0.0            0.0            2.500000E-01   2.852492E-02   1.208335E-01   0.0                           
           270      G      0.0            0.0            1.888613E-01   2.154901E-02   1.235414E-01   0.0                           
           271      G      0.0            0.0            1.265581E-01   1.444024E-02   1.254876E-01   0.0                           
           272      G      0.0            0.0            6.347474E-02   7.242447E-03   1.266602E-01   0.0                           
           273      G      0.0            0.0            0.0            0.0            1.270518E-01   0.0                           
           316      G      0.0            0.0            9.238795E-01   6.009841E-02   0.0            0.0                           
           317      G      0.0            0.0            9.210315E-01   5.991315E-02   1.138366E-02   0.0                           
           318      G      0.0            0.0            9.125050E-01   5.935850E-02   2.269714E-02   0.0                           
           319      G      0.0            0.0            8.983526E-01   5.843789E-02   3.387068E-02   0.0                           
           320      G      0.0            0.0            8.786616E-01   5.715698E-02   4.483540E-02   0.0                           
           321      G      0.0            0.0            8.535533E-01   5.552369E-02   5.552369E-02   0.0                           
           322      G      0.0            0.0            8.231826E-01   5.354808E-02   6.586967E-02   0.0                           
           323      G      0.0            0.0            7.877368E-01   5.124233E-02   7.580953E-02   0.0                           
           324      G      0.0            0.0            7.474342E-01   4.862064E-02   8.528200E-02   0.0                           
           325      G      0.0            0.0            7.025235E-01   4.569919E-02   9.422868E-02   0.0                           
           326      G      0.0            0.0            6.532815E-01   4.249600E-02   1.025944E-01   0.0                           
           327      G      0.0            0.0            6.000117E-01   3.903080E-02   1.103276E-01   0.0                           
           328      G      0.0            0.0            5.430427E-01   3.532496E-02   1.173806E-01   0.0                           
           329      G      0.0            0.0            4.827257E-01   3.140134E-02   1.237099E-01   0.0                           
           330      G      0.0            0.0            4.194325E-01   2.728411E-02   1.292765E-01   0.0                           
           331      G      0.0            0.0            3.535534E-01   2.299867E-02   1.340461E-01   0.0                           
           332      G      0.0            0.0            2.854944E-01   1.857143E-02   1.379892E-01   0.0                           
           333      G      0.0            0.0            2.156754E-01   1.402970E-02   1.410815E-01   0.0                           
           334      G      0.0            0.0            1.445266E-01   9.401463E-03   1.433041E-01   0.0                           
           335      G      0.0            0.0            7.248675E-02   4.715267E-03   1.446431E-01   0.0                           
           336      G      0.0            0.0            0.0            0.0            1.450904E-01   0.0                           
           379      G      0.0            0.0            9.876884E-01   2.456721E-02   0.0            0.0                           
           380      G      0.0            0.0            9.846436E-01   2.449147E-02   1.216989E-02   0.0                           
           381      G      0.0            0.0            9.755282E-01   2.426475E-02   2.426475E-02   0.0                           
           382      G      0.0            0.0            9.603984E-01   2.388841E-02   3.621000E-02   0.0                           
           383      G      0.0            0.0            9.393474E-01   2.336480E-02   4.793201E-02   0.0                           
           384      G      0.0            0.0            9.125050E-01   2.269714E-02   5.935850E-02   0.0                           
           385      G      0.0            0.0            8.800368E-01   2.188954E-02   7.041903E-02   0.0                           
           386      G      0.0            0.0            8.421427E-01   2.094699E-02   8.104540E-02   0.0                           
           387      G      0.0            0.0            7.990566E-01   1.987529E-02   9.117210E-02   0.0                           
           388      G      0.0            0.0            7.510441E-01   1.868105E-02   1.007367E-01   0.0                           
           389      G      0.0            0.0            6.984011E-01   1.737164E-02   1.096802E-01   0.0                           
           390      G      0.0            0.0            6.414523E-01   1.595512E-02   1.179475E-01   0.0                           
1             VIBRATION OF A 20 X 40 HALF PLATE                             /    95 SUN SOLARIS NASTRAN    / MAY 17, 95 / PAGE    24
      NASTRAN DEMONSTRATION PROBLEM NO. D03-01-4A                                                                                   
0                                                                                                                                   
      EIGENVALUE =  0.324457E+02    (CYCLIC FREQUENCY =  9.065642E-01 HZ)

                                         R E A L   E I G E N V E C T O R   N O .          1
 
      POINT ID.   TYPE          T1             T2             T3             R1             R2             R3
           391      G      0.0            0.0            5.805486E-01   1.444024E-02   1.254876E-01   0.0                           
           392      G      0.0            0.0            5.160657E-01   1.283633E-02   1.322541E-01   0.0                           
           393      G      0.0            0.0            4.484011E-01   1.115328E-02   1.382051E-01   0.0                           
           394      G      0.0            0.0            3.779719E-01   9.401463E-03   1.433041E-01   0.0                           
           395      G      0.0            0.0            3.052125E-01   7.591685E-03   1.475196E-01   0.0                           
           396      G      0.0            0.0            2.305713E-01   5.735101E-03   1.508255E-01   0.0                           
           397      G      0.0            0.0            1.545085E-01   3.843158E-03   1.532016E-01   0.0                           
           398      G      0.0            0.0            7.749313E-02   1.927521E-03   1.546331E-01   0.0                           
           399      G      0.0            0.0            0.0            0.0            1.551112E-01   0.0                           
           442      G      0.0            0.0            9.969173E-01  -1.232159E-02   0.0            0.0                           
           443      G      0.0            0.0            9.938442E-01  -1.228360E-02   1.228360E-02   0.0                           
           444      G      0.0            0.0            9.846436E-01  -1.216989E-02   2.449147E-02   0.0                           
           445      G      0.0            0.0            9.693724E-01  -1.198114E-02   3.654835E-02   0.0                           
           446      G      0.0            0.0            9.481246E-01  -1.171853E-02   4.837989E-02   0.0                           
           447      G      0.0            0.0            9.210315E-01  -1.138366E-02   5.991315E-02   0.0                           
           448      G      0.0            0.0            8.882598E-01  -1.097861E-02   7.107703E-02   0.0                           
           449      G      0.0            0.0            8.500117E-01  -1.050588E-02   8.180269E-02   0.0                           
           450      G      0.0            0.0            8.065231E-01  -9.968373E-03   9.202401E-02   0.0                           
           451      G      0.0            0.0            7.580619E-01  -9.369408E-03   1.016780E-01   0.0                           
           452      G      0.0            0.0            7.049270E-01  -8.712677E-03   1.107051E-01   0.0                           
           453      G      0.0            0.0            6.474460E-01  -8.002231E-03   1.190496E-01   0.0                           
           454      G      0.0            0.0            5.859733E-01  -7.242447E-03   1.266602E-01   0.0                           
           455      G      0.0            0.0            5.208879E-01  -6.438011E-03   1.334899E-01   0.0                           
           456      G      0.0            0.0            4.525910E-01  -5.593883E-03   1.394965E-01   0.0                           
           457      G      0.0            0.0            3.815037E-01  -4.715267E-03   1.446431E-01   0.0                           
           458      G      0.0            0.0            3.080644E-01  -3.807580E-03   1.488980E-01   0.0                           
           459      G      0.0            0.0            2.327257E-01  -2.876417E-03   1.522348E-01   0.0                           
           460      G      0.0            0.0            1.559522E-01  -1.927521E-03   1.546331E-01   0.0                           
           461      G      0.0            0.0            7.821723E-02  -9.667405E-04   1.560780E-01   0.0                           
           462      G      0.0            0.0            0.0            0.0            1.565606E-01   0.0                           
           505      G      0.0            0.0            9.510565E-01  -4.852949E-02   0.0            0.0                           
           506      G      0.0            0.0            9.481246E-01  -4.837989E-02   1.171853E-02   0.0                           
           507      G      0.0            0.0            9.393474E-01  -4.793201E-02   2.336480E-02   0.0                           
           508      G      0.0            0.0            9.247788E-01  -4.718861E-02   3.486703E-02   0.0                           
           509      G      0.0            0.0            9.045085E-01  -4.615429E-02   4.615429E-02   0.0                           
           510      G      0.0            0.0            8.786616E-01  -4.483540E-02   5.715698E-02   0.0                           
           511      G      0.0            0.0            8.473975E-01  -4.324009E-02   6.780729E-02   0.0                           
           512      G      0.0            0.0            8.109089E-01  -4.137819E-02   7.803955E-02   0.0                           
           513      G      0.0            0.0            7.694209E-01  -3.926118E-02   8.779067E-02   0.0                           
           514      G      0.0            0.0            7.231890E-01  -3.690211E-02   9.700052E-02   0.0                           
           515      G      0.0            0.0            6.724985E-01  -3.431553E-02   1.056123E-01   0.0                           
           516      G      0.0            0.0            6.176618E-01  -3.151738E-02   1.135730E-01   0.0                           
           517      G      0.0            0.0            5.590169E-01  -2.852492E-02   1.208335E-01   0.0                           
           518      G      0.0            0.0            4.969256E-01  -2.535659E-02   1.273490E-01   0.0                           
           519      G      0.0            0.0            4.317706E-01  -2.203193E-02   1.330793E-01   0.0                           
           520      G      0.0            0.0            3.639536E-01  -1.857143E-02   1.379892E-01   0.0                           
1             VIBRATION OF A 20 X 40 HALF PLATE                             /    95 SUN SOLARIS NASTRAN    / MAY 17, 95 / PAGE    25
      NASTRAN DEMONSTRATION PROBLEM NO. D03-01-4A                                                                                   
0                                                                                                                                   
      EIGENVALUE =  0.324457E+02    (CYCLIC FREQUENCY =  9.065642E-01 HZ)

                                         R E A L   E I G E N V E C T O R   N O .          1
 
      POINT ID.   TYPE          T1             T2             T3             R1             R2             R3
           521      G      0.0            0.0            2.938926E-01  -1.499644E-02   1.420483E-01   0.0                           
           522      G      0.0            0.0            2.220197E-01  -1.132898E-02   1.452316E-01   0.0                           
           523      G      0.0            0.0            1.487780E-01  -7.591685E-03   1.475196E-01   0.0                           
           524      G      0.0            0.0            7.461903E-02  -3.807580E-03   1.488980E-01   0.0                           
           525      G      0.0            0.0            0.0            0.0            1.493584E-01   0.0                           
           568      G      0.0            0.0            8.526402E-01  -8.205564E-02   0.0            0.0                           
           569      G      0.0            0.0            8.500117E-01  -8.180269E-02   1.050588E-02   0.0                           
           570      G      0.0            0.0            8.421427E-01  -8.104540E-02   2.094699E-02   0.0                           
           571      G      0.0            0.0            8.290817E-01  -7.978844E-02   3.125895E-02   0.0                           
           572      G      0.0            0.0            8.109089E-01  -7.803955E-02   4.137819E-02   0.0                           
           573      G      0.0            0.0            7.877368E-01  -7.580953E-02   5.124233E-02   0.0                           
           574      G      0.0            0.0            7.597079E-01  -7.311212E-02   6.079053E-02   0.0                           
           575      G      0.0            0.0            7.269952E-01  -6.996394E-02   6.996394E-02   0.0                           
           576      G      0.0            0.0            6.898004E-01  -6.638441E-02   7.870600E-02   0.0                           
           577      G      0.0            0.0            6.483527E-01  -6.239560E-02   8.696281E-02   0.0                           
           578      G      0.0            0.0            6.029076E-01  -5.802210E-02   9.468347E-02   0.0                           
           579      G      0.0            0.0            5.537454E-01  -5.329088E-02   1.018204E-01   0.0                           
[...]
           638      G      0.0            0.0            4.652968E-02  -1.611804E-03   3.475929E-02   0.0                           
           639      G      0.0            0.0            1.513461E-02   1.953167E-02   6.558467E-02   0.0                           
           640      G      0.0            0.0           -4.960902E-03   1.931878E-02   2.272440E-02   0.0                           
           641      G      0.0            0.0           -3.527547E-03   1.001712E-02  -4.204604E-02   0.0                           
           642      G      0.0            0.0            1.721318E-02   2.235956E-02  -1.284833E-03   0.0                           
           643      G      0.0            0.0           -1.815904E-03   5.374471E-02   4.245743E-02   0.0                           
           644      G      0.0            0.0           -9.720253E-03   7.078455E-02   2.571165E-03   0.0                           
           645      G      0.0            0.0           -1.020584E-02   5.002877E-02  -1.921277E-02   0.0                           
           646      G      0.0            0.0            8.243179E-03   2.450208E-02  -4.005304E-02   0.0                           
           647      G      0.0            0.0            2.783249E-02   4.380697E-02  -4.290781E-02   0.0                           
           648      G      0.0            0.0            4.117139E-02   9.936351E-02   1.020262E-02   0.0                           
           649      G      0.0            0.0            2.089049E-02   9.951933E-02   3.586112E-02   0.0                           
           650      G      0.0            0.0            1.280621E-02   4.382661E-02   1.242278E-02   0.0                           
1             VIBRATION OF A 20 X 40 HALF PLATE                             /    95 SUN SOLARIS NASTRAN    / MAY 17, 95 / PAGE   103
      NASTRAN DEMONSTRATION PROBLEM NO. D03-01-4A                                                                                   
0                                                                                                                                   
      EIGENVALUE =  0.119369E+06    (CYCLIC FREQUENCY =  5.498771E+01 HZ)

                                         R E A L   E I G E N V E C T O R   N O .         12
 
      POINT ID.   TYPE          T1             T2             T3             R1             R2             R3
           651      G      0.0            0.0            0.0            0.0            3.888233E-02   0.0                           
           694      G      0.0            0.0            1.082761E-01   8.448748E-02   0.0            0.0                           
           695      G      0.0            0.0            6.088950E-02   3.309309E-02   1.586633E-01   0.0                           
           696      G      0.0            0.0           -4.069490E-03   6.451030E-04   7.349866E-02   0.0                           
           697      G      0.0            0.0           -1.825179E-02   2.386271E-03   1.649083E-02   0.0                           
           698      G      0.0            0.0           -2.736064E-02   3.424305E-02  -1.312631E-03   0.0                           
           699      G      0.0            0.0           -1.435513E-02   5.359359E-02  -3.668708E-02   0.0                           
           700      G      0.0            0.0           -1.262178E-03   4.414841E-02  -2.975922E-02   0.0                           
           701      G      0.0            0.0            1.316470E-02   2.237212E-02  -1.590077E-02   0.0                           
           702      G      0.0            0.0            1.487726E-02   3.971677E-02   3.864699E-03   0.0                           
           703      G      0.0            0.0            5.119560E-03   8.589385E-02   4.841968E-02   0.0                           
           704      G      0.0            0.0           -2.854466E-02   8.602057E-02   5.650944E-02   0.0                           
           705      G      0.0            0.0           -4.392423E-02   3.762463E-02   1.609360E-02   0.0                           
           706      G      0.0            0.0           -4.389063E-02   1.094734E-03  -2.668860E-02   0.0                           
           707      G      0.0            0.0           -2.126338E-02  -1.555679E-02  -4.512823E-02   0.0                           
           708      G      0.0            0.0           -8.038774E-03  -1.392103E-02  -1.448568E-02   0.0                           
           709      G      0.0            0.0           -8.813659E-03  -8.178906E-03   2.745230E-02   0.0                           
           710      G      0.0            0.0           -1.952599E-02  -2.532710E-02  -1.517398E-02   0.0                           
           711      G      0.0            0.0            4.811001E-03  -5.712051E-02  -5.421036E-02   0.0                           
           712      G      0.0            0.0            2.037979E-02  -7.133348E-02  -1.656252E-02   0.0                           
           713      G      0.0            0.0            2.379654E-02  -4.711678E-02   1.915973E-02   0.0                           
           714      G      0.0            0.0            0.0            0.0            6.467170E-02   0.0                           
           757      G      0.0            0.0            9.446631E-02   5.503758E-02   0.0            0.0                           
           758      G      0.0            0.0            4.503411E-02   8.943980E-02   1.844080E-01   0.0                           
           759      G      0.0            0.0           -4.677380E-02   9.457158E-02   1.465920E-01   0.0                           
           760      G      0.0            0.0           -8.600071E-02   4.962989E-02   2.427490E-02   0.0                           
           761      G      0.0            0.0           -7.613179E-02   1.359749E-02  -6.861635E-02   0.0                           
           762      G      0.0            0.0           -2.981624E-02  -4.971784E-03  -9.266998E-02   0.0                           
           763      G      0.0            0.0            1.496615E-03  -4.039973E-03  -3.699716E-02   0.0                           
           764      G      0.0            0.0            3.747664E-03   3.899089E-03   3.799189E-02   0.0                           
           765      G      0.0            0.0           -1.783736E-02  -7.354615E-03   1.627568E-02   0.0                           
           766      G      0.0            0.0           -9.390172E-03  -3.481909E-02  -2.326865E-02   0.0                           
           767      G      0.0            0.0           -5.284843E-03  -4.922725E-02  -3.642969E-03   0.0                           
           768      G      0.0            0.0           -1.040667E-03  -3.393031E-02   1.831083E-03   0.0                           
           769      G      0.0            0.0           -7.054626E-03  -1.488162E-02   1.159612E-02   0.0                           
           770      G      0.0            0.0           -1.224289E-02  -3.386410E-02   1.298682E-02   0.0                           
           771      G      0.0            0.0           -1.264858E-02  -8.215667E-02  -2.690415E-02   0.0                           
           772      G      0.0            0.0            1.256346E-02  -8.596280E-02  -4.564043E-02   0.0                           
           773      G      0.0            0.0            2.698531E-02  -4.051819E-02  -2.382051E-02   0.0                           
           774      G      0.0            0.0            3.521469E-02  -5.289694E-03   2.349752E-03   0.0                           
           775      G      0.0            0.0            2.577044E-02   1.628401E-02   1.866261E-02   0.0                           
           776      G      0.0            0.0            1.910402E-02   2.001872E-02   1.939523E-02   0.0                           
           777      G      0.0            0.0            0.0            0.0            4.824808E-02   0.0                           
           820      G      0.0            0.0            1.093977E-01  -1.431112E-01   0.0            0.0                           
           821      G      0.0            0.0            7.646863E-02  -1.079777E-01   1.048758E-01   0.0                           
           822      G      0.0            0.0            2.981248E-02  -4.419446E-02   7.126358E-02   0.0                           
1             VIBRATION OF A 20 X 40 HALF PLATE                             /    95 SUN SOLARIS NASTRAN    / MAY 17, 95 / PAGE   104
      NASTRAN DEMONSTRATION PROBLEM NO. D03-01-4A                                                                                   
0                                                                                                                                   
      EIGENVALUE =  0.119369E+06    (CYCLIC FREQUENCY =  5.498771E+01 HZ)

                                         R E A L   E I G E N V E C T O R   N O .         12
 
      POINT ID.   TYPE          T1             T2             T3             R1             R2             R3
           823      G      0.0            0.0            8.862031E-03  -1.231865E-02   2.238381E-02   0.0                           
           824      G      0.0            0.0            4.246425E-03   8.640050E-03  -1.446145E-02   0.0                           
           825      G      0.0            0.0            1.895249E-02  -1.336670E-02  -3.094893E-02   0.0                           
           826      G      0.0            0.0            3.301906E-02  -4.656610E-02  -3.187767E-02   0.0                           
           827      G      0.0            0.0            4.707285E-02  -8.386029E-02  -6.024608E-03   0.0                           
           828      G      0.0            0.0            3.870611E-02  -4.764397E-02   2.124365E-02   0.0                           
           829      G      0.0            0.0            2.670034E-02  -1.971781E-02   3.801727E-02   0.0                           
           830      G      0.0            0.0            3.646889E-03   5.832942E-03   3.327829E-02   0.0                           
           831      G      0.0            0.0           -7.353892E-04   1.025910E-02  -8.080496E-03   0.0                           
           832      G      0.0            0.0            8.896368E-03   1.253353E-02  -3.922147E-02   0.0                           
           833      G      0.0            0.0            2.300061E-02   8.413283E-03   1.663211E-02   0.0                           
           834      G      0.0            0.0           -3.816368E-03   2.942756E-02   5.574040E-02   0.0                           
           835      G      0.0            0.0           -1.909981E-02   3.784440E-02   1.282768E-02   0.0                           
           836      G      0.0            0.0           -2.245013E-02   3.984972E-02  -9.053246E-03   0.0                           
           837      G      0.0            0.0           -1.353193E-02   1.054465E-02  -1.432888E-02   0.0                           
           838      G      0.0            0.0           -7.799463E-03  -2.627933E-03  -1.846340E-02   0.0                           
           839      G      0.0            0.0            3.304897E-03  -1.127949E-02  -1.112285E-02   0.0                           
           840      G      0.0            0.0            0.0            0.0            1.826628E-02   0.0                           
           841      G      0.0            0.0            0.0           -2.592994E-01   0.0            0.0                           
           842      G      0.0            0.0            0.0           -1.758991E-01   0.0            0.0                           
           843      G      0.0            0.0            0.0           -7.237992E-02   0.0            0.0                           
           844      G      0.0            0.0            0.0           -2.915641E-02   0.0            0.0                           
           845      G      0.0            0.0            0.0           -1.906524E-02   0.0            0.0                           
           846      G      0.0            0.0            0.0           -5.635077E-02   0.0            0.0                           
           847      G      0.0            0.0            0.0           -7.384542E-02   0.0            0.0                           
           848      G      0.0            0.0            0.0           -1.036263E-01   0.0            0.0                           
           849      G      0.0            0.0            0.0           -8.968437E-02   0.0            0.0                           
           850      G      0.0            0.0            0.0           -7.699323E-02   0.0            0.0                           
           851      G      0.0            0.0            0.0           -1.533966E-02   0.0            0.0                           
           852      G      0.0            0.0            0.0           -1.130912E-02   0.0            0.0                           
           853      G      0.0            0.0            0.0           -3.069705E-02   0.0            0.0                           
           854      G      0.0            0.0            0.0           -8.118921E-02   0.0            0.0                           
           855      G      0.0            0.0            0.0           -1.800381E-03   0.0            0.0                           
           856      G      0.0            0.0            0.0            3.198010E-02   0.0            0.0                           
           857      G      0.0            0.0            0.0            4.972568E-02   0.0            0.0                           
           858      G      0.0            0.0            0.0            3.393507E-02   0.0            0.0                           
           859      G      0.0            0.0            0.0            2.965915E-02   0.0            0.0                           
           860      G      0.0            0.0            0.0           -3.744016E-03   0.0            0.0                           
           861      G      0.0            0.0            0.0            0.0            0.0            0.0                           
1             VIBRATION OF A 20 X 40 HALF PLATE                             /    95 SUN SOLARIS NASTRAN    / MAY 17, 95 / PAGE   105
      NASTRAN DEMONSTRATION PROBLEM NO. D03-01-4A                                                                                   
0                                                                                                                                   
                                                  MESSAGES FROM THE PLOT MODULE                                                   





 P L O T T E R    D A T A                                                                                                           
                                                                                                                                    
          THE FOLLOWING PLOTS ARE FOR A NASTPLT MICROFILM PLOTTER WITHOUT TYPING CAPABILITY                                         
                                                                                                                                    
          AN END-OF-FILE MARK FOLLOWS THE LAST PLOT                                                                                 
                                                                                                                                    
          THE FIRST COMMAND FOR EACH PLOT CONTAINS THE PLOT NUMBER                                                                  
                                                                                                                                    
          CSCALE =  1.00                                                                                                            
                                                                                                                                    
          THE FOLLOWING PLOTS ARE REQUESTED ON PAPER ONLY                                                                           
                                                                                                                                    




 E N G I N E E R I N G    D A T A                                                                                                   
                                                                                                                                    
          ORTHOGRAPHIC PROJECTION                                                                                                   
          ROTATIONS (DEGREES) - GAMMA =  34.27, BETA =  23.17, ALPHA =   0.00,  AXES = +X,+Y,+Z, SYMMETRIC                          
          SCALE (OBJECT-TO-PLOT SIZE) = 2.539654E-01                                                                                
                                                                                                                                    
          ORIGIN      10   -   X0 = -4.398808E-01, Y0 = -0.345970E+01     (INCHES)                                                  
          ORIGIN      11   -   X0 = -4.398808E-01, Y0 = -0.345970E+01     (INCHES)                                                  




                                                  PLOT MODULE MESSAGES CONTINUE                                                     
                                                                                                                                    
          PLOT    2   MODAL  DEFORM.     1 - SUBCASE       1 - MODE   9.065642E-01 - FREQUENCY                                      
          PLOT    3   MODAL  DEFORM.     1 - SUBCASE       2 - MODE   2.266261E+00 - FREQUENCY                                      
          PLOT    4   MODAL  DEFORM.     1 - SUBCASE       3 - MODE   4.533995E+00 - FREQUENCY                                      
          PLOT    5   MODAL  DEFORM.     1 - SUBCASE       4 - MODE   5.883843E+00 - FREQUENCY                                      
          PLOT    6   MODAL  DEFORM.     1 - SUBCASE       5 - MODE   7.712141E+00 - FREQUENCY                                      
          PLOT    7   MODAL  DEFORM.     1 - SUBCASE       6 - MODE   8.135221E+00 - FREQUENCY                                      
          PLOT    8   MODAL  DEFORM.     1 - SUBCASE       7 - MODE   1.148168E+01 - FREQUENCY                                      
          PLOT    9   MODAL  DEFORM.     1 - SUBCASE       8 - MODE   1.200693E+01 - FREQUENCY                                      
          PLOT   10   MODAL  DEFORM.     1 - SUBCASE       9 - MODE   1.443565E+01 - FREQUENCY                                      
          PLOT   11   MODAL  DEFORM.     1 - SUBCASE      10 - MODE   1.853699E+01 - FREQUENCY                                      
          PLOT   12   MODAL  DEFORM.     1 - SUBCASE      11 - MODE   2.605883E+01 - FREQUENCY                                      
          PLOT   13   MODAL  DEFORM.     1 - SUBCASE      12 - MODE   5.498771E+01 - FREQUENCY                                      
                                                 ORIGIN     11  USED IN THIS PLOT                                                   




                                        * * * END OF JOB * * *
1
 JOB TITLE =          VIBRATION OF A 20 X 40 HALF PLATE                          
 DATE:  5/17/95
 END TIME: 15:38:31
 TOTAL WALL CLOCK TIME      4 SEC.
 
