     NASTRAN FILES=PLT2                                                              






                                  ****
                                *      *
                               *        *
                               *  N A S T R A N
                               *        *
                                *      *
                                  ****


                             SUN COMPUTER SYSTEMS    
                                SOLARIS VERSION

                          SYSTEM RELEASE -  1995 ED.

                                DISTRIBUTED BY

         COMPUTER SOFTWARE MANAGEMENT AND INFORMATION CENTER (COSMIC)
                 UNIVERSITY OF GEORGIA, ATHENS, GEORGIA 30602
                 PHONE: (706)542-3265      FAX: (706)542-4807
1                                                                           /    95 SUN SOLARIS NASTRAN    / MAY 17, 95 / PAGE     2
                                                                                                                                    
0                                                                                                                                   
                                                                                                         
                                                                                                         
                         INSTALLATION CENTER USER INFORMATION GIVEN IN THIS SECTION                      
                                                                                                         
                                     *********************************************                       
                                     *                                           *                       
                                     *  PLEASE READ THE COMMENT IN DEMO PROBLEM  *                       
                                     *  D01002A ABOUT SYSTEM TIMING CONSTANTS    *                       
                                     *                                           *                       
                                     *********************************************                       
                                                                                                         
                         ===X=    TOP OF PAGE REQUEST IF 'X' IS REPLACED BY '='                          
                                                                                                         
1                                                                           /    95 SUN SOLARIS NASTRAN    / MAY 17, 95 / PAGE     3
                                                                                                                                    
0                                                                                                                                   
0*** USER INFORMATION MESSAGE 225, GINO TIME CONSTANTS ARE BEING COMPUTED
     (SEE NASINFO FILE FOR ELIMINATION OF THESE COMPUTATIONS)
1                                                                           /    95 SUN SOLARIS NASTRAN    / MAY 17, 95 / PAGE     4
                                                                                                                                    
0        N A S T R A N    E X E C U T I V E    C O N T R O L    D E C K    E C H O                                                  
0                                                                                                                                   
                                                                                                                                    
                                                                                                                                    
     ID    D05011A,NASTRAN                                                           
     APP   DISPLACEMENT                                                              
     SOL   5,1                                                                       
     TIME  26                                                                        
     CEND                                                                            


0*** USER INFORMATION MESSAGE, TURN DIAG 48 ON FOR NASTRAN RELEASE NEWS, DIAG DEFINITION, NEW DMAP
         MODULES AND NEW BULKDATA CARDS INFORMATION
1     SYMMETRIC BUCKLING OF A CYLINDER                                      /    95 SUN SOLARIS NASTRAN    / MAY 17, 95 / PAGE     5
      NASTRAN DEMONSTRATION PROBLEM NO. D05-01-1A                                                                                   
0                                                                                                                                   
0                                        C A S E    C O N T R O L   D E C K   E C H O                                               
                 CARD                                                                                                               
                 COUNT                                                                                                              
                  1      TITLE    = SYMMETRIC BUCKLING OF A CYLINDER                                     
                  2      SUBTITLE = NASTRAN DEMONSTRATION PROBLEM NO. D05-01-1A                          
                  3                 SPC  = 1                                                             
                  4      OUTPUT                                                                          
                  5                 SET 1 = 1 THRU 33                                                    
                  6                 SET 2 = 2,6,10,14,18,22,26,30,34,38,42,46,50,54,58,62,66,70,         
                  7                         74,78                                                        
                  8         DISPLACEMENTS = 1                                                            
                  9              SPCFORCE = ALL                                                          
                 10               ELFORCE = 2                                                            
                 11              ELSTRESS = 2                                                            
                 12      $                                                                               
                 13      SUBCASE 1                                                                       
                 14       LABEL =         STATIC SOLUTION                                                
                 15       LOAD  = 100                                                                    
                 16       OUTPUT                                                                         
                 17       OLOAD = ALL                                                                    
                 18      $                                                                               
                 19      SUBCASE 2                                                                       
                 20       LABEL =         BUCKLING SOLUTION                                              
                 21      METHOD = 300                                                                    
                 22      $                                                                               
                 23      $                                                                               
                 24      PLOTID = NASTRAN DEMONSTRATION PROBLEM NO. D05-01-1A                            
                 25      OUTPUT(PLOT)                                                                    
                 26      PLOTTER NASTPLT                                                                 
                 27              SET 1 INCLUDE TRIA1                                                     
                 28      $                                                                               
                 29              PERSPECTIVE PROJECTION                                                  
                 30              AXES Y, X, MZ                                                           
                 31              MAXIMUM DEFORMATION 3.0                                                 
                 32              FIND SCALE,ORIGIN 1, VANTAGE POINT                                      
                 33      PTITLE = PERSPECTIVE VIEW OF MODEL                                              
                 34      PLOT LABELS,SYMBOLS 6,5                                                         
                 35      $                                                                               
                 36              ORTHOGRAPHIC PROJECTION                                                 
                 37              MAXIMUM DEFORMATION  3.0                                                
                 38              FIND SCALE, ORIGIN 2                                                    
                 39      PTITLE = STATIC LOAD UNDERLAY OF CYLINDRICAL SURFACE                            
                 40      PLOT STATIC DEFORMATION 0,1, ORIGIN 2, LABELS, SHAPE                            
                 41      PTITLE = MODE SHAPES OF CYLINDRICAL SURFACE WITH VECTORS                        
                 42      PLOT MODAL DEFORMATION  2, RANGE 0.5, 3.0,                                      
                 43              ORIGIN 2, VECTOR R, SYMBOLS 5,6                                         
                 44              VIEW 0.0, 0.0, 0.0                                                      
                 45              FIND SCALE, ORIGIN 1                                                    
                 46      PTITLE = LONGITUDINAL EDGE VIEW SHOWING BUCKLING MODES                          
                 47      PLOT MODAL DEFORMATION 0,2, RANGE 0.0, 200.0, ORIGIN 1, SHAPE                   
1     SYMMETRIC BUCKLING OF A CYLINDER                                      /    95 SUN SOLARIS NASTRAN    / MAY 17, 95 / PAGE     6
      NASTRAN DEMONSTRATION PROBLEM NO. D05-01-1A                                                                                   
0                                                                                                                                   
0                                        C A S E    C O N T R O L   D E C K   E C H O                                               
                 CARD                                                                                                               
                 COUNT                                                                                                              
                 48      BEGIN BULK                                                                      


                        (NO. OF UNSORTED BULK DATA CARDS READ =   169, INCLUDING   0 COMMENT CARDS)
0*** USER INFORMATION MESSAGE 207, BULK DATA DECK IS NOT SORTED. NASTRAN WILL RE-ORDER THE INPUT DECK.
1     SYMMETRIC BUCKLING OF A CYLINDER                                      /    95 SUN SOLARIS NASTRAN    / MAY 17, 95 / PAGE     7
      NASTRAN DEMONSTRATION PROBLEM NO. D05-01-1A                                                                                   
0                                                                                                                                   
0                                                 S O R T E D   B U L K    D A T A    E C H O                                       
                     CARD                                                                                                           
                     COUNT        ---1--- +++2+++ ---3--- +++4+++ ---5--- +++6+++ ---7--- +++8+++ ---9--- +++10+++                  
                    1-        CNGRNT  1       5       9       13      17      21      25      29      +CNG11  
                    2-        +CNG11  33      37      41      45      49      53      57      61      +CNG12  
                    3-        +CNG12  65      69      73      77                                              
                    4-        CNGRNT  2       6       10      14      18      22      26      30      +CNG21  
                    5-        +CNG21  34      38      42      46      50      54      58      62      +CNG22  
                    6-        +CNG22  66      70      74      78                                              
                    7-        CNGRNT  3       7       11      15      19      23      27      31      +CNG31  
                    8-        +CNG31  35      39      43      47      51      55      59      63      +CNG32  
                    9-        +CNG32  67      71      75      79                                              
                   10-        CNGRNT  4       8       12      16      20      24      28      32      +CNG41  
                   11-        +CNG41  36      40      44      48      52      56      60      64      +CNG42  
                   12-        +CNG42  68      72      76      80                                              
                   13-        CORD2C  100     0       25.0    .0      80.0    50.0    .0      80.0    +CORD100
                   14-        +CORD10025.0    .0      .0                                                      
                   15-        CTRIA1  1       200     1       2       51      .0                              
                   16-        CTRIA1  2       200     1       4       51      .0                              
                   17-        CTRIA1  3       200     4       5       51      .0                              
                   18-        CTRIA1  4       200     5       2       51      .0                              
                   19-        CTRIA1  5       200     2       3       52      .0                              
                   20-        CTRIA1  6       200     2       5       52      .0                              
                   21-        CTRIA1  7       200     5       6       52      .0                              
                   22-        CTRIA1  8       200     6       3       52      .0                              
                   23-        CTRIA1  9       200     4       5       54      .0                              
                   24-        CTRIA1  10      200     4       7       54      .0                              
                   25-        CTRIA1  11      200     7       8       54      .0                              
                   26-        CTRIA1  12      200     8       5       54      .0                              
                   27-        CTRIA1  13      200     5       6       55      .0                              
                   28-        CTRIA1  14      200     5       8       55      .0                              
                   29-        CTRIA1  15      200     8       9       55      .0                              
                   30-        CTRIA1  16      200     9       6       55      .0                              
                   31-        CTRIA1  17      200     7       8       57      .0                              
                   32-        CTRIA1  18      200     7       10      57      .0                              
                   33-        CTRIA1  19      200     10      11      57      .0                              
                   34-        CTRIA1  20      200     11      8       57      .0                              
                   35-        CTRIA1  21      200     8       9       58      .0                              
                   36-        CTRIA1  22      200     8       11      58      .0                              
                   37-        CTRIA1  23      200     11      12      58      .0                              
                   38-        CTRIA1  24      200     12      9       58      .0                              
                   39-        CTRIA1  25      200     10      11      60      .0                              
                   40-        CTRIA1  26      200     10      13      60      .0                              
                   41-        CTRIA1  27      200     13      14      60      .0                              
                   42-        CTRIA1  28      200     14      11      60      .0                              
                   43-        CTRIA1  29      200     11      12      61      .0                              
                   44-        CTRIA1  30      200     11      14      61      .0                              
                   45-        CTRIA1  31      200     14      15      61      .0                              
                   46-        CTRIA1  32      200     15      12      61      .0                              
                   47-        CTRIA1  33      200     13      14      63      .0                              
1     SYMMETRIC BUCKLING OF A CYLINDER                                      /    95 SUN SOLARIS NASTRAN    / MAY 17, 95 / PAGE     8
      NASTRAN DEMONSTRATION PROBLEM NO. D05-01-1A                                                                                   

                                                                                                                                    

                                                  S O R T E D   B U L K    D A T A    E C H O                                       
                     CARD                                                                                                           
                     COUNT        ---1--- +++2+++ ---3--- +++4+++ ---5--- +++6+++ ---7--- +++8+++ ---9--- +++10+++                  
                   48-        CTRIA1  34      200     13      16      63      .0                              
                   49-        CTRIA1  35      200     16      17      63      .0                              
                   50-        CTRIA1  36      200     17      14      63      .0                              
                   51-        CTRIA1  37      200     14      15      64      .0                              
                   52-        CTRIA1  38      200     14      17      64      .0                              
                   53-        CTRIA1  39      200     17      18      64      .0                              
                   54-        CTRIA1  40      200     18      15      64      .0                              
                   55-        CTRIA1  41      200     16      17      66      .0                              
                   56-        CTRIA1  42      200     16      19      66      .0                              
                   57-        CTRIA1  43      200     19      20      66      .0                              
                   58-        CTRIA1  44      200     20      17      66      .0                              
                   59-        CTRIA1  45      200     17      18      67      .0                              
                   60-        CTRIA1  46      200     17      20      67      .0                              
                   61-        CTRIA1  47      200     20      21      67      .0                              
                   62-        CTRIA1  48      200     21      18      67      .0                              
                   63-        CTRIA1  49      200     19      20      69      .0                              
                   64-        CTRIA1  50      200     19      22      69      .0                              
                   65-        CTRIA1  51      200     22      23      69      .0                              
                   66-        CTRIA1  52      200     23      20      69      .0                              
                   67-        CTRIA1  53      200     20      21      70      .0                              
                   68-        CTRIA1  54      200     20      23      70      .0                              
                   69-        CTRIA1  55      200     23      24      70      .0                              
                   70-        CTRIA1  56      200     24      21      70      .0                              
                   71-        CTRIA1  57      200     22      23      72      .0                              
                   72-        CTRIA1  58      200     22      25      72      .0                              
                   73-        CTRIA1  59      200     25      26      72      .0                              
                   74-        CTRIA1  60      200     26      23      72      .0                              
                   75-        CTRIA1  61      200     23      24      73      .0                              
                   76-        CTRIA1  62      200     23      26      73      .0                              
                   77-        CTRIA1  63      200     26      27      73      .0                              
                   78-        CTRIA1  64      200     27      24      73      .0                              
                   79-        CTRIA1  65      200     25      26      75      .0                              
                   80-        CTRIA1  66      200     25      28      75      .0                              
                   81-        CTRIA1  67      200     28      29      75      .0                              
                   82-        CTRIA1  68      200     29      26      75      .0                              
                   83-        CTRIA1  69      200     26      27      76      .0                              
                   84-        CTRIA1  70      200     26      29      76      .0                              
                   85-        CTRIA1  71      200     29      30      76      .0                              
                   86-        CTRIA1  72      200     30      27      76      .0                              
                   87-        CTRIA1  73      200     28      29      78      .0                              
                   88-        CTRIA1  74      200     28      31      78      .0                              
                   89-        CTRIA1  75      200     31      32      78      .0                              
                   90-        CTRIA1  76      200     32      29      78      .0                              
                   91-        CTRIA1  77      200     29      30      79      .0                              
                   92-        CTRIA1  78      200     29      32      79      .0                              
                   93-        CTRIA1  79      200     32      33      79      .0                              
                   94-        CTRIA1  80      200     33      30      79      .0                              
1     SYMMETRIC BUCKLING OF A CYLINDER                                      /    95 SUN SOLARIS NASTRAN    / MAY 17, 95 / PAGE     9
      NASTRAN DEMONSTRATION PROBLEM NO. D05-01-1A                                                                                   

                                                                                                                                    

                                                  S O R T E D   B U L K    D A T A    E C H O                                       
                     CARD                                                                                                           
                     COUNT        ---1--- +++2+++ ---3--- +++4+++ ---5--- +++6+++ ---7--- +++8+++ ---9--- +++10+++                  
                   95-        EIGB    300     UDET    .10     2.5     4       4       0       1.5E-05 +EIGB300
                   96-        +EIGB300MAX                                                                     
                   97-        FORCE   1       1       100     1.0+3   .0      .0      .5                      
                   98-        FORCE   1       2       100     1.0+3   .0      .0      1.0                     
                   99-        FORCE   1       3       100     1.0+3   .0      .0      .5                      
                  100-        FORCE   1       31      100     1.0+3   .0      .0      -0.5                    
                  101-        FORCE   1       32      100     1.0+3   .0      .0      -1.0                    
                  102-        FORCE   1       33      100     1.0+3   .0      .0      -0.5                    
                  103-        GRDSET                                                  462                     
                  104-        GRID    1       100     80.0    -3.0    -25.0   100                             
                  105-        GRID    2       100     80.0    .0      -25.0   100                             
                  106-        GRID    3       100     80.0    3.0     -25.0   100                             
                  107-        GRID    4       100     80.0    -3.0    -20.0   100                             
                  108-        GRID    5       100     80.0    .0      -20.0   100                             
                  109-        GRID    6       100     80.0    3.0     -20.0   100                             
                  110-        GRID    7       100     80.0    -3.0    -15.0   100                             
                  111-        GRID    8       100     80.0    .0      -15.0   100                             
                  112-        GRID    9       100     80.0    3.0     -15.0   100                             
                  113-        GRID    10      100     80.0    -3.0    -10.0   100                             
                  114-        GRID    11      100     80.0    .0      -10.0   100                             
                  115-        GRID    12      100     80.0    3.0     -10.0   100                             
                  116-        GRID    13      100     80.0    -3.0    -05.0   100                             
                  117-        GRID    14      100     80.0    .0      -05.0   100                             
                  118-        GRID    15      100     80.0    3.0     -05.0   100                             
                  119-        GRID    16      100     80.0    -3.0    +0.0    100                             
                  120-        GRID    17      100     80.0    .0      +0.0    100                             
                  121-        GRID    18      100     80.0    3.0     +0.0    100                             
                  122-        GRID    19      100     80.0    -3.0    +5.0    100                             
                  123-        GRID    20      100     80.0    .0      +5.0    100                             
                  124-        GRID    21      100     80.0    3.0     +5.0    100                             
                  125-        GRID    22      100     80.0    -3.0    10.0    100                             
                  126-        GRID    23      100     80.0    .0      10.0    100                             
                  127-        GRID    24      100     80.0    3.0     10.0    100                             
                  128-        GRID    25      100     80.0    -3.0    15.0    100                             
                  129-        GRID    26      100     80.0    .0      15.0    100                             
                  130-        GRID    27      100     80.0    3.0     15.0    100                             
                  131-        GRID    28      100     80.0    -3.0    20.0    100                             
                  132-        GRID    29      100     80.0    .0      20.0    100                             
                  133-        GRID    30      100     80.0    3.0     20.0    100                             
                  134-        GRID    31      100     80.0    -3.0    25.0    100                             
                  135-        GRID    32      100     80.0    .0      25.0    100                             
                  136-        GRID    33      100     80.0    3.0     25.0    100                             
                  137-        GRID    51      100     80.0    -1.5    -22.5   100                             
                  138-        GRID    52      100     80.0    1.5     -22.5   100                             
                  139-        GRID    54      100     80.0    -1.5    -17.5   100                             
                  140-        GRID    55      100     80.0    1.5     -17.5   100                             
                  141-        GRID    57      100     80.0    -1.5    -12.5   100                             
1     SYMMETRIC BUCKLING OF A CYLINDER                                      /    95 SUN SOLARIS NASTRAN    / MAY 17, 95 / PAGE    10
      NASTRAN DEMONSTRATION PROBLEM NO. D05-01-1A                                                                                   

                                                                                                                                    

                                                  S O R T E D   B U L K    D A T A    E C H O                                       
                     CARD                                                                                                           
                     COUNT        ---1--- +++2+++ ---3--- +++4+++ ---5--- +++6+++ ---7--- +++8+++ ---9--- +++10+++                  
                  142-        GRID    58      100     80.0    1.5     -12.5   100                             
                  143-        GRID    60      100     80.0    -1.5    -07.5   100                             
                  144-        GRID    61      100     80.0    1.5     -07.5   100                             
                  145-        GRID    63      100     80.0    -1.5    -02.5   100                             
                  146-        GRID    64      100     80.0    1.5     -02.5   100                             
                  147-        GRID    66      100     80.0    -1.5    2.5     100                             
                  148-        GRID    67      100     80.0    1.5     2.5     100                             
                  149-        GRID    69      100     80.0    -1.5    7.5     100                             
                  150-        GRID    70      100     80.0    1.5     7.5     100                             
                  151-        GRID    72      100     80.0    -1.5    12.5    100                             
                  152-        GRID    73      100     80.0    1.5     12.5    100                             
                  153-        GRID    75      100     80.0    -1.5    17.5    100                             
                  154-        GRID    76      100     80.0    1.5     17.5    100                             
                  155-        GRID    78      100     80.0    -1.5    22.5    100                             
                  156-        GRID    79      100     80.0    1.5     22.5    100                             
                  157-        LOAD    100     1.0     1.89745 1                                               
                  158-        MAT1    400     10000.00        .0                                              
                  159-        PARAM   IRES    1                                                               
                  160-        PTRIA1  200     400     2.5     400     1.30208                         +PTRIA1*
                  161-        +PTRIA1*1.51022 0.00                                                            
                  162-        SEQGP   51      2.5     52      3.5     54      5.5     55      6.5             
                  163-        SEQGP   57      8.5     58      9.5     60      11.5    61      12.5            
                  164-        SEQGP   63      14.5    64      15.5    66      17.5    67      18.5            
                  165-        SEQGP   69      20.5    70      21.5    72      23.5    73      24.5            
                  166-        SEQGP   75      26.5    76      27.5    78      29.5    79      30.5            
                  167-        SPC     50038   17      3       .0                                              
                  168-        SPC1    50037   1       1       2       3       31      32      33              
                  169-        SPCADD  1       50037   50038                                                   
                              ENDDATA
0*** USER WARNING MESSAGE 2251, TWO OF THE E, G AND NU ON MAT1 CARD      400 ARE ZEROS OR BLANKS.
     POTENTIAL ERROR MAY OCCUR LATER
0*** USER INFORMATION MESSAGE -  GRID-POINT RESEQUENCING PROCESSOR BANDIT IS NOT USED DUE TO
     THE PRESENCE OF SEQGP CARDS
0          **NO ERRORS FOUND - EXECUTE NASTRAN PROGRAM**
0*** USER INFORMATION MESSAGE, PLOT FILE GOES TO PLT2
1     SYMMETRIC BUCKLING OF A CYLINDER                                      /    95 SUN SOLARIS NASTRAN    / MAY 17, 95 / PAGE    11
      NASTRAN DEMONSTRATION PROBLEM NO. D05-01-1A                                                                                   
0                                                                                                                                   
                                                  MESSAGES FROM THE PLOT MODULE                                                   





 P L O T T E R    D A T A                                                                                                           
                                                                                                                                    
          THE FOLLOWING PLOTS ARE FOR A NASTPLT MICROFILM PLOTTER WITHOUT TYPING CAPABILITY                                         
                                                                                                                                    
          AN END-OF-FILE MARK FOLLOWS THE LAST PLOT                                                                                 
                                                                                                                                    
          THE FIRST COMMAND FOR EACH PLOT CONTAINS THE PLOT NUMBER                                                                  
                                                                                                                                    
          CSCALE =  1.00                                                                                                            
                                                                                                                                    
          THE FOLLOWING PLOTS ARE REQUESTED ON PAPER ONLY                                                                           
                                                                                                                                    




 E N G I N E E R I N G    D A T A                                                                                                   
                                                                                                                                    
          PERSPECTIVE  PROJECTION                                                                                                   
          ROTATIONS (DEGREES) - GAMMA =  34.27, BETA =   0.00, ALPHA =   0.00,  AXES = +Y,+X,-Z, SYMMETRIC                          
          SCALE (OBJECT-TO-PLOT SIZE) = 1.439311E-01                                                                                
          VANTAGE POINT (INCHES) - RO = 1.016716E+02, S0 = 0.206598E+02, T0 = 0.578196E+02                                          
          PROJECTION PLANE SEPARATION (INCHES) = 8.681171E+01                                                                       
                                                                                                                                    
          ORIGIN       1   -   X0 = -5.099206E-01, Y0 = -0.168773E+01     (INCHES)                                                  




                                                  PLOT MODULE MESSAGES CONTINUE                                                     
                                                                                                                                    
                                                 PLOT        1  UNDEFORMED SHAPE                                                    
                                                 ORIGIN      1  USED IN THIS PLOT                                                   
0*** USER INFORMATION MESSAGE 238, TURN DIAG 38 ON FOR ADDITIONAL ELEMENT PROCESSING INFORMATION

1     SYMMETRIC BUCKLING OF A CYLINDER                                      /    95 SUN SOLARIS NASTRAN    / MAY 17, 95 / PAGE    12
      NASTRAN DEMONSTRATION PROBLEM NO. D05-01-1A                                                                                   

                                                                                                                                    




0*** USER INFORMATION MESSAGE 3113,
     EMG MODULE PROCESSING DOUBLE PRECISION TRIA1    ELEMENTS (ELEMENT TYPE   6) STARTING WITH ID        1
0*** SYSTEM WARNING MESSAGE 3022
+                                 (SEE PROG. MANUAL SEC. 4.9.7, OR USERS' MANUAL P. 6.5-3)
     DATA BLOCK MGG      MAY BE REQUIRED AS INPUT AND IS NOT OUTPUT BY A PREVIOUS MODULE IN THE CURRENT DMAP ROUTE.
0*** SYSTEM WARNING MESSAGE 3022
+                                 (SEE PROG. MANUAL SEC. 4.9.7, OR USERS' MANUAL P. 6.5-3)
     DATA BLOCK MGG      MAY BE REQUIRED AS INPUT AND IS NOT OUTPUT BY A PREVIOUS MODULE IN THE CURRENT DMAP ROUTE.
0*** USER INFORMATION MESSAGE 3035
     FOR SUBCASE NUMBER     1, EPSILON SUB E =   2.4399934E-15
1     SYMMETRIC BUCKLING OF A CYLINDER                                      /    95 SUN SOLARIS NASTRAN    / MAY 17, 95 / PAGE    13
      NASTRAN DEMONSTRATION PROBLEM NO. D05-01-1A                                                                                   
0                                                                                                                                   
0                RULV                                                                                                               
         POINT          VALUE     POINT          VALUE     P0INT          VALUE     POINT          VALUE      POINT          VALUE  
                                                                                                                                    
0COLUMN       1 (       1-T3).
             1 T3 -1.25056E-12        1 R2 -6.75016E-13        2 T3  1.59162E-12        2 R2 -6.92779E-13       51 T1  9.09495E-13
            51 T3 -1.46783E-12       51 R2  1.34470E-12        3 T3 -3.41061E-13        3 R2 -8.17124E-14       52 T1  9.37916E-13
            52 T3 -3.47369E-12       52 R2  1.40510E-12        4 T1 -1.13509E-12        4 T3  2.89901E-12        4 R2 -9.27258E-13
             5 T1 -1.44063E-12        5 T3 -1.93268E-12        5 R2 -1.38911E-12       54 T1  6.18172E-13       54 T3 -3.96147E-12
            54 R2  1.33848E-12        6 T1 -4.80505E-13        6 T3  1.64846E-12        6 R2 -5.03597E-13       55 T1  1.08535E-12
            55 T3  6.17961E-12       55 R2  1.33493E-12        7 T1 -9.27258E-13        7 T3  2.27374E-13        7 R2 -8.38440E-13
             8 T1 -1.50280E-12        8 T3 -2.72848E-12        8 R2 -1.06937E-12       57 T1  3.90799E-13       57 T3  6.13051E-13
            57 R2  1.02496E-12        9 T1 -5.71987E-13        9 T3  1.30740E-12        9 R2 -2.75335E-13       58 T1  2.91323E-13
            58 T3  3.32896E-12       58 R2  1.15641E-12       10 T1 -7.95808E-13       10 T3  5.40012E-13       10 R2 -3.62377E-13
            11 T1 -9.29035E-13       11 T3  2.67164E-12       11 R2 -6.09290E-13       60 T1  1.03029E-13       60 T3  1.87475E-12
            60 R2  6.31495E-13       12 T1 -4.28990E-13       12 T3 -1.98952E-13       12 R2 -6.21725E-14       61 T1  1.49214E-13
            61 T3  5.50199E-13       61 R2  6.59028E-13       13 T1 -4.59450E-13       13 T3 -6.39717E-13       13 R2 -4.40105E-13
            14 T1 -8.77386E-13       14 T3  3.51025E-13       14 R2 -6.81933E-13       63 T1  1.00638E-13       63 T3  2.92459E-13
            63 R2  3.91196E-13       15 T1 -3.50291E-13       15 T3  2.42012E-13       15 R2 -2.36708E-13       64 T1  8.80350E-14
            64 T3 -1.74630E-13       64 R2  5.08644E-13       16 T1 -6.95444E-13       16 T3  3.12639E-13       16 R2 -4.48530E-13
            17 T1 -1.24878E-12       17 R2 -6.99885E-13       66 T1 -1.49214E-13       66 T3  3.47944E-13       66 R2  3.63265E-13
            18 T1 -4.28102E-13       18 T3  7.38964E-13       18 R2 -1.87406E-13       67 T1  6.75016E-14       67 T3 -3.77504E-13
            67 R2  3.44613E-13       19 T1 -1.04095E-12       19 T3 -3.41061E-13       19 R2 -7.22977E-13       20 T1 -1.80833E-12
            20 T3 -1.47793E-12       20 R2 -9.13047E-13       69 T1 -8.17124E-14       69 T3 -1.33561E-12       69 R2  4.40536E-13
            21 T1 -6.98108E-13       21 T3  1.70530E-13       21 R2 -2.61124E-13       70 T1 -1.91847E-13       70 T3 -2.69226E-12
            70 R2  3.96128E-13       22 T1 -1.56763E-12       22 R2 -8.19789E-13       23 T1 -2.51177E-12       23 T3 -7.95808E-13
            23 R2 -1.59872E-12       72 T1  3.73035E-14       72 T3  1.34607E-12       72 R2  3.07310E-13       24 T1 -9.55680E-13
            24 T3  4.54747E-13       24 R2 -4.96492E-13       73 T1 -2.41585E-13       73 T3 -1.52477E-12       73 R2  6.91003E-13
            25 T1 -1.61116E-12       25 T3 -2.27374E-12       25 R2 -7.78044E-13       26 T1 -2.84217E-12       26 T3  2.27374E-13
            26 R2 -1.18661E-12       75 T1 -5.11591E-13       75 T3  2.93129E-12       75 R2  3.10862E-13       27 T1 -1.20615E-12
            27 T3 -5.68434E-13       27 R2 -5.56000E-13       76 T1 -5.32907E-13       76 T3 -3.25304E-12       76 R2  1.97176E-13
            28 T1 -9.02389E-13       28 T3 -3.86535E-12       28 R2 -2.06057E-13       29 T1 -1.70530E-12       29 T3 -1.81899E-12
            29 R2 -5.54223E-13       78 T1 -1.22213E-12       78 T3 -6.25078E-12       78 R2 -7.53175E-13       30 T1 -9.87654E-13
            30 T3  1.36424E-12       30 R2 -4.05009E-13       79 T1 -1.30740E-12       79 T3  2.03171E-12       79 R2 -6.39488E-13
            31 T3 -1.27226E-12       31 R2  2.13163E-14       32 T3 -3.40988E-12       32 R2  7.46070E-14       33 T3 -8.96061E-13
            33 R2 -5.68434E-14
1     SYMMETRIC BUCKLING OF A CYLINDER                                      /    95 SUN SOLARIS NASTRAN    / MAY 17, 95 / PAGE    14
      NASTRAN DEMONSTRATION PROBLEM NO. D05-01-1A                                                                                   
0             STATIC SOLUTION                                                                                SUBCASE 1              
 
                                             D I S P L A C E M E N T   V E C T O R
 
      POINT ID.   TYPE          T1             T2             T3             R1             R2             R3
             1      G      0.0            0.0            4.530113E-01   0.0            1.493624E-03   0.0                           
             2      G      0.0            0.0            4.530113E-01   0.0            1.493624E-03   0.0                           
             3      G      0.0            0.0            4.530113E-01   0.0            1.493624E-03   0.0                           
             4      G      4.521807E-03   0.0            3.624025E-01   0.0            3.945479E-04   0.0                           
             5      G      4.521807E-03   0.0            3.624025E-01   0.0            3.945479E-04   0.0                           
             6      G      4.521808E-03   0.0            3.624025E-01   0.0            3.945480E-04   0.0                           
             7      G      5.020969E-03   0.0            2.717983E-01   0.0           -1.351363E-04   0.0                           
             8      G      5.020970E-03   0.0            2.717983E-01   0.0           -1.351364E-04   0.0                           
             9      G      5.020970E-03   0.0            2.717983E-01   0.0           -1.351364E-04   0.0                           
            10      G      3.910930E-03   0.0            1.811974E-01   0.0           -2.719970E-04   0.0                           
            11      G      3.910930E-03   0.0            1.811974E-01   0.0           -2.719970E-04   0.0                           
            12      G      3.910930E-03   0.0            1.811974E-01   0.0           -2.719970E-04   0.0                           
            13      G      2.723196E-03   0.0            9.059831E-02   0.0           -1.845057E-04   0.0                           
            14      G      2.723196E-03   0.0            9.059831E-02   0.0           -1.845058E-04   0.0                           
            15      G      2.723196E-03   0.0            9.059831E-02   0.0           -1.845058E-04   0.0                           
            16      G      2.248194E-03   0.0           -1.942890E-16   0.0           -8.166753E-16   0.0                           
            17      G      2.248194E-03   0.0            0.0            0.0           -8.202532E-16   0.0                           
            18      G      2.248194E-03   0.0           -1.873501E-16   0.0           -8.243189E-16   0.0                           
            19      G      2.723196E-03   0.0           -9.059831E-02   0.0            1.845057E-04   0.0                           
            20      G      2.723196E-03   0.0           -9.059831E-02   0.0            1.845058E-04   0.0                           
            21      G      2.723196E-03   0.0           -9.059831E-02   0.0            1.845058E-04   0.0                           
            22      G      3.910930E-03   0.0           -1.811974E-01   0.0            2.719970E-04   0.0                           
            23      G      3.910930E-03   0.0           -1.811974E-01   0.0            2.719970E-04   0.0                           
            24      G      3.910930E-03   0.0           -1.811974E-01   0.0            2.719970E-04   0.0                           
            25      G      5.020969E-03   0.0           -2.717983E-01   0.0            1.351363E-04   0.0                           
            26      G      5.020970E-03   0.0           -2.717983E-01   0.0            1.351364E-04   0.0                           
            27      G      5.020970E-03   0.0           -2.717983E-01   0.0            1.351364E-04   0.0                           
            28      G      4.521807E-03   0.0           -3.624025E-01   0.0           -3.945479E-04   0.0                           
            29      G      4.521807E-03   0.0           -3.624025E-01   0.0           -3.945479E-04   0.0                           
            30      G      4.521808E-03   0.0           -3.624025E-01   0.0           -3.945480E-04   0.0                           
            31      G      0.0            0.0           -4.530113E-01   0.0           -1.493624E-03   0.0                           
            32      G      0.0            0.0           -4.530113E-01   0.0           -1.493624E-03   0.0                           
            33      G      0.0            0.0           -4.530113E-01   0.0           -1.493624E-03   0.0                           
1     SYMMETRIC BUCKLING OF A CYLINDER                                      /    95 SUN SOLARIS NASTRAN    / MAY 17, 95 / PAGE    15
      NASTRAN DEMONSTRATION PROBLEM NO. D05-01-1A                                                                                   
0             STATIC SOLUTION                                                                                SUBCASE 1              
 
                                                     L O A D   V E C T O R
 
      POINT ID.   TYPE          T1             T2             T3             R1             R2             R3
             1      G      0.0            0.0            9.487250E+02   0.0            0.0            0.0                           
             2      G      0.0            0.0            1.897450E+03   0.0            0.0            0.0                           
             3      G      0.0            0.0            9.487250E+02   0.0            0.0            0.0                           
            31      G      0.0            0.0           -9.487250E+02   0.0            0.0            0.0                           
            32      G      0.0            0.0           -1.897450E+03   0.0            0.0            0.0                           
            33      G      0.0            0.0           -9.487250E+02   0.0            0.0            0.0                           
1     SYMMETRIC BUCKLING OF A CYLINDER                                      /    95 SUN SOLARIS NASTRAN    / MAY 17, 95 / PAGE    16
      NASTRAN DEMONSTRATION PROBLEM NO. D05-01-1A                                                                                   
0             STATIC SOLUTION                                                                                SUBCASE 1              
 
                               F O R C E S   O F   S I N G L E - P O I N T   C O N S T R A I N T
 
      POINT ID.   TYPE          T1             T2             T3             R1             R2             R3
             1      G      7.285580E-01  -8.469142E-01   0.0            1.805507E-01   0.0            3.701859E+00                  
             2      G      1.457114E+00  -4.317856E-05   0.0           -1.378303E-07   0.0           -6.490509E-06                  
             3      G      7.285564E-01   8.468710E-01   0.0           -1.805507E-01   0.0           -3.701865E+00                  
             4      G      0.0           -6.711637E+00   0.0            4.115828E-03   0.0            7.852575E+00                  
             5      G      0.0           -2.765656E-06   0.0           -9.521974E-08   0.0           -1.973346E-05                  
             6      G      0.0            6.711634E+00   0.0           -4.115792E-03   0.0           -7.852594E+00                  
             7      G      0.0           -7.765545E+00   0.0            2.459845E-03   0.0            7.849104E+00                  
             8      G      0.0           -1.598993E-06   0.0            1.685123E-08   0.0           -2.277023E-05                  
             9      G      0.0            7.765544E+00   0.0           -2.459849E-03   0.0           -7.849126E+00                  
            10      G      0.0           -6.203201E+00   0.0            1.223298E-03   0.0            7.847950E+00                  
            11      G      0.0            4.572253E-06   0.0            5.369029E-08   0.0           -1.924447E-05                  
            12      G      0.0            6.203206E+00   0.0           -1.223316E-03   0.0           -7.847970E+00                  
            13      G      0.0           -4.435428E+00   0.0            4.666350E-04   0.0            7.847808E+00                  
            14      G      0.0            8.949936E-06   0.0            3.802452E-08   0.0           -1.487808E-05                  
            15      G      0.0            4.435437E+00   0.0           -4.666480E-04   0.0           -7.847823E+00                  
            16      G      0.0           -3.719525E+00   0.0           -7.924217E-15   0.0            7.847852E+00                  
            17      G      0.0            1.042426E-05   1.318767E-11   1.367782E-14   0.0           -1.307713E-05                  
            18      G      0.0            3.719536E+00   0.0            1.609823E-15   0.0           -7.847865E+00                  
            19      G      0.0           -4.435428E+00   0.0           -4.666350E-04   0.0            7.847808E+00                  
            20      G      0.0            8.949936E-06   0.0           -3.802450E-08   0.0           -1.487808E-05                  
            21      G      0.0            4.435437E+00   0.0            4.666480E-04   0.0           -7.847823E+00                  
            22      G      0.0           -6.203201E+00   0.0           -1.223298E-03   0.0            7.847950E+00                  
            23      G      0.0            4.572252E-06   0.0           -5.369026E-08   0.0           -1.924447E-05                  
            24      G      0.0            6.203206E+00   0.0            1.223316E-03   0.0           -7.847970E+00                  
            25      G      0.0           -7.765545E+00   0.0           -2.459845E-03   0.0            7.849104E+00                  
            26      G      0.0           -1.598994E-06   0.0           -1.685119E-08   0.0           -2.277023E-05                  
            27      G      0.0            7.765544E+00   0.0            2.459849E-03   0.0           -7.849126E+00                  
            28      G      0.0           -6.711637E+00   0.0           -4.115828E-03   0.0            7.852575E+00                  
            29      G      0.0           -2.765657E-06   0.0            9.521976E-08   0.0           -1.973347E-05                  
            30      G      0.0            6.711634E+00   0.0            4.115792E-03   0.0           -7.852594E+00                  
            31      G      7.285580E-01  -8.469142E-01   0.0           -1.805507E-01   0.0            3.701859E+00                  
            32      G      1.457114E+00  -4.317856E-05   0.0            1.378303E-07   0.0           -6.490509E-06                  
            33      G      7.285564E-01   8.468710E-01   0.0            1.805507E-01   0.0           -3.701865E+00                  
            51      G      0.0            4.635235E-05   0.0           -2.691410E-09   0.0           -6.284938E-06                  
            52      G      0.0            4.635235E-05   0.0           -2.691406E-09   0.0           -6.284938E-06                  
            54      G      0.0            1.099298E-05   0.0            3.089063E-09   0.0           -1.343793E-05                  
            55      G      0.0            1.099298E-05   0.0            3.089064E-09   0.0           -1.343793E-05                  
            57      G      0.0           -4.342870E-06   0.0            3.315397E-09   0.0           -1.237747E-05                  
            58      G      0.0           -4.342869E-06   0.0            3.315396E-09   0.0           -1.237747E-05                  
            60      G      0.0           -1.119993E-05   0.0            2.168778E-09   0.0           -8.559026E-06                  
            61      G      0.0           -1.119993E-05   0.0            2.168778E-09   0.0           -8.559026E-06                  
            63      G      0.0           -1.378621E-05   0.0            7.340255E-10   0.0           -5.811686E-06                  
            64      G      0.0           -1.378621E-05   0.0            7.340253E-10   0.0           -5.811686E-06                  
            66      G      0.0           -1.378621E-05   0.0           -7.340264E-10   0.0           -5.811685E-06                  
            67      G      0.0           -1.378621E-05   0.0           -7.340257E-10   0.0           -5.811686E-06                  
            69      G      0.0           -1.119993E-05   0.0           -2.168780E-09   0.0           -8.559026E-06                  
            70      G      0.0           -1.119993E-05   0.0           -2.168778E-09   0.0           -8.559026E-06                  
1     SYMMETRIC BUCKLING OF A CYLINDER                                      /    95 SUN SOLARIS NASTRAN    / MAY 17, 95 / PAGE    17
      NASTRAN DEMONSTRATION PROBLEM NO. D05-01-1A                                                                                   
0             STATIC SOLUTION                                                                                SUBCASE 1              
 
                               F O R C E S   O F   S I N G L E - P O I N T   C O N S T R A I N T
 
      POINT ID.   TYPE          T1             T2             T3             R1             R2             R3
            72      G      0.0           -4.342870E-06   0.0           -3.315399E-09   0.0           -1.237747E-05                  
            73      G      0.0           -4.342869E-06   0.0           -3.315398E-09   0.0           -1.237747E-05                  
            75      G      0.0            1.099298E-05   0.0           -3.089066E-09   0.0           -1.343793E-05                  
            76      G      0.0            1.099298E-05   0.0           -3.089067E-09   0.0           -1.343793E-05                  
            78      G      0.0            4.635234E-05   0.0            2.691408E-09   0.0           -6.284939E-06                  
            79      G      0.0            4.635235E-05   0.0            2.691405E-09   0.0           -6.284939E-06                  
1     SYMMETRIC BUCKLING OF A CYLINDER                                      /    95 SUN SOLARIS NASTRAN    / MAY 17, 95 / PAGE    18
      NASTRAN DEMONSTRATION PROBLEM NO. D05-01-1A                                                                                   
0             STATIC SOLUTION                                                                                SUBCASE 1              
 
                     F O R C E S   I N   G E N E R A L   T R I A N G U L A R   E L E M E N T S        ( C T R I A 1 )
0        ELEMENT           BEND-MOMENT           BEND-MOMENT          TWIST-MOMENT             SHEAR                 SHEAR
           ID.                 X                     Y                                           X                     Y
               2          2.861937E+00         -6.261730E-01          1.466327E-01          3.596048E-01          1.992508E+00      
               6          2.861936E+00         -6.261711E-01          1.466317E-01          3.596053E-01          1.992493E+00      
              10          1.379271E+00         -6.287727E-01          1.092793E-01          2.706900E-01          2.000748E+00      
              14          1.379271E+00         -6.287689E-01          1.092807E-01          2.706891E-01          2.000702E+00      
              18          3.563799E-01         -6.280365E-01          6.697607E-02          1.672290E-01          1.998413E+00      
              22          3.563799E-01         -6.280403E-01          6.697607E-02          1.672280E-01          1.998398E+00      
              26         -2.278202E-01         -6.264133E-01          3.354645E-02          8.434850E-02          1.993263E+00      
              30         -2.278202E-01         -6.264095E-01          3.354645E-02          8.434850E-02          1.993248E+00      
              34         -4.804402E-01         -6.252975E-01          9.875119E-03          2.493440E-02          1.989723E+00      
              38         -4.804402E-01         -6.252937E-01          9.875119E-03          2.493487E-02          1.989708E+00      
              42         -4.804392E-01         -6.252956E-01         -9.868264E-03         -2.496348E-02          1.989719E+00      
              46         -4.804391E-01         -6.252937E-01         -9.868026E-03         -2.496301E-02          1.989708E+00      
              50         -2.278176E-01         -6.264114E-01         -3.353739E-02         -8.438629E-02          1.993256E+00      
              54         -2.278175E-01         -6.264076E-01         -3.353691E-02         -8.438772E-02          1.993233E+00      
              58          3.563823E-01         -6.280365E-01         -6.696260E-02         -1.672817E-01          1.998413E+00      
              62          3.563822E-01         -6.280365E-01         -6.696355E-02         -1.672817E-01          1.998398E+00      
              66          1.379270E+00         -6.287766E-01         -1.092653E-01         -2.707480E-01          2.000748E+00      
              70          1.379270E+00         -6.287689E-01         -1.092657E-01         -2.707470E-01          2.000717E+00      
              74          2.861925E+00         -6.261806E-01         -1.466241E-01         -3.596336E-01          1.992546E+00      
              78          2.861925E+00         -6.261806E-01         -1.466231E-01         -3.596340E-01          1.992523E+00      
1     SYMMETRIC BUCKLING OF A CYLINDER                                      /    95 SUN SOLARIS NASTRAN    / MAY 17, 95 / PAGE    19
      NASTRAN DEMONSTRATION PROBLEM NO. D05-01-1A                                                                                   
0             STATIC SOLUTION                                                                                SUBCASE 1              
 
                  S T R E S S E S   I N   G E N E R A L   T R I A N G U L A R   E L E M E N T S       ( C T R I A 1 )
                                                  (IN ELEMENT COORDINATE SYSTEM)

  ELEMENT      FIBRE               STRESSES IN ELEMENT COORD SYSTEM             PRINCIPAL STRESSES (ZERO SHEAR)            MAX
    ID.       DISTANCE           NORMAL-X       NORMAL-Y      SHEAR-XY       ANGLE         MAJOR           MINOR          SHEAR
0       2    1.510220E+00     -1.845371E+02   1.046941E+00  -2.400795E-01   -89.9259    1.047249E+00   -1.845374E+02   9.279232E+01 
             0.0              -1.812177E+02   3.206729E-01  -7.000732E-02   -89.9779    3.207016E-01   -1.812177E+02   9.076919E+01 
0       6    1.510220E+00     -1.845371E+02   1.046932E+00  -2.400784E-01   -89.9259    1.047249E+00   -1.845374E+02   9.279232E+01 
             0.0              -1.812177E+02   3.206662E-01  -7.000732E-02   -89.9779    3.206940E-01   -1.812177E+02   9.076919E+01 
0      10    1.510220E+00     -1.828081E+02   1.341500E+00  -1.349875E-01   -89.9580    1.341606E+00   -1.828082E+02   9.207488E+01 
             0.0              -1.812083E+02   6.122163E-01  -8.239746E-03   -89.9974    6.122131E-01   -1.812083E+02   9.091026E+01 
0      14    1.510220E+00     -1.828081E+02   1.341492E+00  -1.349892E-01   -89.9580    1.341591E+00   -1.828082E+02   9.207487E+01 
             0.0              -1.812083E+02   6.122134E-01  -8.239746E-03   -89.9974    6.122131E-01   -1.812083E+02   9.091026E+01 
0      18    1.510220E+00     -1.816152E+02   1.287123E+00  -6.114180E-02   -89.9808    1.287148E+00   -1.816152E+02   9.145118E+01 
             0.0              -1.812018E+02   5.586939E-01   1.654053E-02    89.9948    5.587006E-01   -1.812018E+02   9.088027E+01 
0      22    1.510220E+00     -1.816152E+02   1.287127E+00  -6.114180E-02   -89.9808    1.287148E+00   -1.816152E+02   9.145118E+01 
             0.0              -1.812018E+02   5.586938E-01   1.654053E-02    89.9948    5.587006E-01   -1.812018E+02   9.088027E+01 
0      26    1.510220E+00     -1.809340E+02   1.132877E+00  -2.096457E-02   -89.9934    1.132874E+00   -1.809340E+02   9.103343E+01 
             0.0              -1.811982E+02   4.063300E-01   1.794434E-02    89.9943    4.063263E-01   -1.811982E+02   9.080228E+01 
0      30    1.510220E+00     -1.809340E+02   1.132874E+00  -2.096457E-02   -89.9934    1.132874E+00   -1.809340E+02   9.103343E+01 
             0.0              -1.811982E+02   4.063314E-01   1.794434E-02    89.9943    4.063263E-01   -1.811982E+02   9.080228E+01 
0      34    1.510220E+00     -1.806394E+02   1.023880E+00  -4.251527E-03   -89.9987    1.023880E+00   -1.806394E+02   9.083163E+01 
             0.0              -1.811966E+02   2.986272E-01   7.202148E-03    89.9977    2.986298E-01   -1.811966E+02   9.074762E+01 
0      38    1.510220E+00     -1.806394E+02   1.023877E+00  -4.251527E-03   -89.9987    1.023880E+00   -1.806394E+02   9.083163E+01 
             0.0              -1.811966E+02   2.986292E-01   7.202148E-03    89.9977    2.986298E-01   -1.811966E+02   9.074762E+01 
0      42    1.510220E+00     -1.806394E+02   1.023878E+00   4.251206E-03    89.9987    1.023880E+00   -1.806394E+02   9.083163E+01 
             0.0              -1.811966E+02   2.986272E-01  -7.194519E-03   -89.9977    2.986298E-01   -1.811966E+02   9.074762E+01 
0      46    1.510220E+00     -1.806394E+02   1.023877E+00   4.250930E-03    89.9987    1.023880E+00   -1.806394E+02   9.083163E+01 
             0.0              -1.811966E+02   2.986293E-01  -7.194519E-03   -89.9977    2.986298E-01   -1.811966E+02   9.074762E+01 
0      50    1.510220E+00     -1.809340E+02   1.132874E+00   2.095407E-02    89.9934    1.132874E+00   -1.809340E+02   9.103343E+01 
             0.0              -1.811982E+02   4.063300E-01  -1.794434E-02   -89.9943    4.063263E-01   -1.811982E+02   9.080228E+01 
0      54    1.510220E+00     -1.809340E+02   1.132872E+00   2.095351E-02    89.9934    1.132874E+00   -1.809340E+02   9.103343E+01 
             0.0              -1.811982E+02   4.063314E-01  -1.794434E-02   -89.9943    4.063263E-01   -1.811982E+02   9.080228E+01 
0      58    1.510220E+00     -1.816152E+02   1.287123E+00   6.112617E-02    89.9809    1.287148E+00   -1.816152E+02   9.145118E+01 
             0.0              -1.812018E+02   5.586940E-01  -1.654053E-02   -89.9948    5.587006E-01   -1.812018E+02   9.088027E+01 
1     SYMMETRIC BUCKLING OF A CYLINDER                                      /    95 SUN SOLARIS NASTRAN    / MAY 17, 95 / PAGE    20
      NASTRAN DEMONSTRATION PROBLEM NO. D05-01-1A                                                                                   
0             STATIC SOLUTION                                                                                SUBCASE 1              
 
                  S T R E S S E S   I N   G E N E R A L   T R I A N G U L A R   E L E M E N T S       ( C T R I A 1 )
                                                  (IN ELEMENT COORDINATE SYSTEM)

  ELEMENT      FIBRE               STRESSES IN ELEMENT COORD SYSTEM             PRINCIPAL STRESSES (ZERO SHEAR)            MAX
    ID.       DISTANCE           NORMAL-X       NORMAL-Y      SHEAR-XY       ANGLE         MAJOR           MINOR          SHEAR
0      62    1.510220E+00     -1.816152E+02   1.287123E+00   6.112728E-02    89.9809    1.287148E+00   -1.816152E+02   9.145118E+01 
             0.0              -1.812018E+02   5.586938E-01  -1.654053E-02   -89.9948    5.587006E-01   -1.812018E+02   9.088027E+01 
0      66    1.510220E+00     -1.828081E+02   1.341504E+00   1.350323E-01    89.9580    1.341606E+00   -1.828082E+02   9.207488E+01 
             0.0              -1.812083E+02   6.122162E-01   8.300781E-03    89.9974    6.122131E-01   -1.812083E+02   9.091026E+01 
0      70    1.510220E+00     -1.828081E+02   1.341492E+00   1.349718E-01    89.9580    1.341591E+00   -1.828082E+02   9.207487E+01 
             0.0              -1.812083E+02   6.122134E-01   8.239746E-03    89.9974    6.122131E-01   -1.812083E+02   9.091026E+01 
0      74    1.510220E+00     -1.845371E+02   1.046950E+00   2.400696E-01    89.9259    1.047264E+00   -1.845374E+02   9.279232E+01 
             0.0              -1.812177E+02   3.206729E-01   7.000732E-02    89.9779    3.207016E-01   -1.812177E+02   9.076919E+01 
0      78    1.510220E+00     -1.845371E+02   1.046943E+00   2.401295E-01    89.9259    1.047249E+00   -1.845374E+02   9.279231E+01 
             0.0              -1.812177E+02   3.206661E-01   7.006836E-02    89.9779    3.206940E-01   -1.812177E+02   9.076919E+01 
1     SYMMETRIC BUCKLING OF A CYLINDER                                      /    95 SUN SOLARIS NASTRAN    / MAY 17, 95 / PAGE    21
      NASTRAN DEMONSTRATION PROBLEM NO. D05-01-1A                                                                                   
0                                                                                                                                   
                                                  MESSAGES FROM THE PLOT MODULE                                                   





 P L O T T E R    D A T A                                                                                                           
                                                                                                                                    
          THE FOLLOWING PLOTS ARE FOR A NASTPLT MICROFILM PLOTTER WITHOUT TYPING CAPABILITY                                         
                                                                                                                                    
          AN END-OF-FILE MARK FOLLOWS THE LAST PLOT                                                                                 
                                                                                                                                    
          THE FIRST COMMAND FOR EACH PLOT CONTAINS THE PLOT NUMBER                                                                  
                                                                                                                                    
          CSCALE =  1.00                                                                                                            
                                                                                                                                    
          THE FOLLOWING PLOTS ARE REQUESTED ON PAPER ONLY                                                                           
                                                                                                                                    




 E N G I N E E R I N G    D A T A                                                                                                   
                                                                                                                                    
          ORTHOGRAPHIC PROJECTION                                                                                                   
          ROTATIONS (DEGREES) - GAMMA =  34.27, BETA =  23.17, ALPHA =   0.00,  AXES = +Y,+X,-Z, SYMMETRIC                          
          SCALE (OBJECT-TO-PLOT SIZE) = 1.153226E-01                                                                                
                                                                                                                                    
          ORIGIN       2   -   X0 = -8.711188E-01, Y0 = -0.298235E+01     (INCHES)                                                  




                                                  PLOT MODULE MESSAGES CONTINUE                                                     
                                                                                                                                    
          PLOT    2   STATIC DEFORM.     1 - SUBCASE     100 - LOAD                                                                 
                                                 ORIGIN      2  USED IN THIS PLOT                                                   
1     SYMMETRIC BUCKLING OF A CYLINDER                                      /    95 SUN SOLARIS NASTRAN    / MAY 17, 95 / PAGE    22
      NASTRAN DEMONSTRATION PROBLEM NO. D05-01-1A                                                                                   

                                                                                                                                    




0*** USER INFORMATION MESSAGE 3028      B =   10     BBAR =   17
                                        C =    9     CBAR =    0
                                        R =   26
0*** USER INFORMATION MESSAGE 3027, UNSYMMETRIC  REAL    DECOMPOSITION OF DATA BLOCK SCRATCH6 (N =   152)
     TIME ESTIMATE =        0 SECONDS
1     SYMMETRIC BUCKLING OF A CYLINDER                                      /    95 SUN SOLARIS NASTRAN    / MAY 17, 95 / PAGE    23
      NASTRAN DEMONSTRATION PROBLEM NO. D05-01-1A                                                                                   
0                                                                                                                                   
 
 
                          E I G E N V A L U E   A N A L Y S I S   S U M M A R Y       (DETERMINANT METHOD)
0
0                                       NUMBER OF EIGENVALUES EXTRACTED  . . . . . .        4
0                                       NUMBER OF PASSES THROUGH STARTING POINTS . .        0
0                                       NUMBER OF CRITERIA CHANGES . . . . . . . . .        0
0                                       NUMBER OF STARTING POINT MOVES . . . . . . .        0
0                                       NUMBER OF TRIANGULAR DECOMPOSITIONS  . . . .       38
0                                       NUMBER OF FAILURES TO ITERATE TO A ROOT  . .        0

0                                       REASON FOR TERMINATION . . . . . . . . . . .        1*

0                                       LARGEST OFF-DIAGONAL MODAL MASS TERM . . . . 0.00E+00
0                                                                              . . .        0
                                                  MODE PAIR . . . . . . . . . .
                                                                               . . .        0
0                                       NUMBER OF OFF-DIAGONAL MODAL MASS
                                             TERMS FAILING CRITERION . . . . . . . .        0

0                                       (* NO. OF ROOTS DESIRED WERE FOUND.
                                         SEE NASTRAN U.M. VOL II, SECTION 2.3.3)
1     SYMMETRIC BUCKLING OF A CYLINDER                                      /    95 SUN SOLARIS NASTRAN    / MAY 17, 95 / PAGE    24
      NASTRAN DEMONSTRATION PROBLEM NO. D05-01-1A                                                                                   
0                                                                                                                                   
 
                          E I G E N V A L U E   A N A L Y S I S   S U M M A R Y       (DETERMINANT METHOD)
0                                        S W E P T   D E T E R M I N A N T   F U N C T I O N

          STARTING POINT      LAMBDA         RADIAN FREQUENCY    CYCLIC FREQUENCY    DETERMINANT         SCALE FACTOR

                   -1       1.000000E-01       3.162278E-01       5.032921E-02       1.485674E+00            731                    
                    2       2.250000E-01       4.743416E-01       7.549381E-02       1.223334E+00            731                    
                    3       4.000000E-01       6.324555E-01       1.006584E-01       9.258196E+00            730                    
                    4       6.250000E-01       7.905694E-01       1.258230E-01       6.389823E+00            730                    
                    5       9.000000E-01       9.486833E-01       1.509876E-01       3.973502E+00            730                    
                    6       1.225000E+00       1.106797E+00       1.761522E-01       2.183683E+00            730                    
                    7       1.600000E+00       1.264911E+00       2.013168E-01       1.025934E+00            730                    
                    8       2.025000E+00       1.423025E+00       2.264814E-01       3.855352E+00            729                    
                    9       2.500000E+00       1.581139E+00       2.516460E-01       9.731239E+00            728                    
1     SYMMETRIC BUCKLING OF A CYLINDER                                      /    95 SUN SOLARIS NASTRAN    / MAY 17, 95 / PAGE    25
      NASTRAN DEMONSTRATION PROBLEM NO. D05-01-1A                                                                                   
0                                                                                                                                   
 
                                              R E A L   E I G E N V A L U E S

   MODE    EXTRACTION       EIGENVALUE            RADIAN              CYCLIC           GENERALIZED         GENERALIZED
    NO.       ORDER                              FREQUENCY           FREQUENCY            MASS              STIFFNESS

        1         1        9.942567E-01        9.971243E-01        1.586972E-01        0.0                 0.0                      
        2         2        1.274364E+00        1.128877E+00        1.796664E-01        0.0                 0.0                      
        3         3        2.006962E+00        1.416673E+00        2.254705E-01        0.0                 0.0                      
        4         4        2.288906E+00        1.512913E+00        2.407876E-01        0.0                 0.0                      
1     SYMMETRIC BUCKLING OF A CYLINDER                                      /    95 SUN SOLARIS NASTRAN    / MAY 17, 95 / PAGE    26
      NASTRAN DEMONSTRATION PROBLEM NO. D05-01-1A                                                                                   
0             BUCKLING SOLUTION                                                                              SUBCASE 2              
      EIGENVALUE =  0.994257E+00    (CYCLIC FREQUENCY =  1.586972E-01 HZ)

                                         R E A L   E I G E N V E C T O R   N O .          1
 
      POINT ID.   TYPE          T1             T2             T3             R1             R2             R3
             1      G      0.0            0.0            2.103514E-03   0.0            1.268178E-01   0.0                           
             2      G      0.0            0.0            2.103012E-03   0.0            1.268178E-01   0.0                           
             3      G      0.0            0.0            2.102520E-03   0.0            1.268178E-01   0.0                           
[...]
             0.0              -5.173757E+00   1.129514E+02  -5.721819E+00   -87.2333    1.132279E+02   -5.450272E+00   5.933909E+01 
0      34    1.510220E+00     -5.745136E+02   6.358517E+01  -7.265750E+01   -83.5854    7.175377E+01   -5.826822E+02   3.272180E+02 
             0.0              -3.196878E+00   6.983296E+01   1.497602E+01    78.8499    7.278474E+01   -6.148659E+00   3.946670E+01 
0      38    1.510220E+00     -5.745114E+02   6.358002E+01  -7.266557E+01   -83.5846    7.175052E+01   -5.826819E+02   3.272162E+02 
             0.0              -3.197573E+00   6.983179E+01   1.497517E+01    78.8504    7.278326E+01   -6.149052E+00   3.946616E+01 
0      42    1.510220E+00      5.744816E+02  -6.349718E+01  -7.265248E+01    -6.4154    5.826506E+02   -7.166620E+01   3.271584E+02 
             0.0               3.195150E+00  -6.974895E+01   1.497354E+01    11.1603    6.149204E+00   -7.270300E+01   3.942610E+01 
0      46    1.510220E+00      5.744733E+02  -6.349714E+01  -7.266260E+01    -6.4163    5.826447E+02   -7.166849E+01   3.271566E+02 
             0.0               3.189751E+00  -6.974776E+01   1.497517E+01    11.1623    6.144669E+00   -7.270268E+01   3.942368E+01 
0      50    1.510220E+00      9.294730E+02  -1.027726E+02   2.776242E+01     1.5395    9.302191E+02   -1.035188E+02   5.168690E+02 
             0.0               5.163900E+00  -1.128772E+02  -5.720089E+00    -2.7678    5.440441E+00   -1.131537E+02   5.929707E+01 
0      54    1.510220E+00      9.294769E+02  -1.027694E+02   2.777699E+01     1.5403    9.302238E+02   -1.035163E+02   5.168701E+02 
             0.0               5.169165E+00  -1.128750E+02  -5.719757E+00    -2.7676    5.445667E+00   -1.131515E+02   5.929860E+01 
0      58    1.510220E+00     -4.228090E-02   5.281875E-02   8.979506E+01    45.0152    8.980035E+01   -8.978980E+01   8.979507E+01 
             0.0               4.596710E-04   5.627344E-02  -1.851348E+01   -45.0432    1.854186E+01   -1.848513E+01   1.851350E+01 
1     SYMMETRIC BUCKLING OF A CYLINDER                                      /    95 SUN SOLARIS NASTRAN    / MAY 17, 95 / PAGE    47
      NASTRAN DEMONSTRATION PROBLEM NO. D05-01-1A                                                                                   
0             BUCKLING SOLUTION                                                                              SUBCASE 2              
      EIGENVALUE =  0.200696E+01    (CYCLIC FREQUENCY =  2.254705E-01 HZ)

                  S T R E S S E S   I N   G E N E R A L   T R I A N G U L A R   E L E M E N T S       ( C T R I A 1 )
                                                  (IN ELEMENT COORDINATE SYSTEM)

  ELEMENT      FIBRE               STRESSES IN ELEMENT COORD SYSTEM             PRINCIPAL STRESSES (ZERO SHEAR)            MAX
    ID.       DISTANCE           NORMAL-X       NORMAL-Y      SHEAR-XY       ANGLE         MAJOR           MINOR          SHEAR
0      62    1.510220E+00     -4.895809E-02   5.598685E-02   8.977144E+01    45.0167    8.977497E+01   -8.976794E+01   8.977145E+01 
             0.0              -7.279396E-03   5.630264E-02  -1.851784E+01   -45.0492    1.854237E+01   -1.849335E+01   1.851786E+01 
0      66    1.510220E+00     -9.296722E+02   1.028669E+02   2.776058E+01    88.4610    1.036128E+02   -9.304180E+02   5.170154E+02 
             0.0              -5.192958E+00   1.129777E+02  -5.715561E+00   -87.2374    1.132535E+02   -5.468758E+00   5.936113E+01 
0      70    1.510220E+00     -9.296622E+02   1.028638E+02   2.778544E+01    88.4596    1.036110E+02   -9.304094E+02   5.170102E+02 
             0.0              -5.179877E+00   1.129757E+02  -5.714626E+00   -87.2375    1.132514E+02   -5.455624E+00   5.935353E+01 
0      74    1.510220E+00     -5.744465E+02   6.355655E+01  -7.266763E+01   -83.5836    7.172862E+01   -5.826186E+02   3.271736E+02 
             0.0              -3.204375E+00   6.981228E+01   1.498430E+01    78.8425    7.276770E+01   -6.159794E+00   3.946375E+01 
0      78    1.510220E+00     -5.744471E+02   6.355659E+01  -7.268759E+01   -83.5819    7.173306E+01   -5.826237E+02   3.271783E+02 
             0.0              -3.202138E+00   6.981119E+01   1.497977E+01    78.8451    7.276501E+01   -6.155964E+00   3.946049E+01 
1     SYMMETRIC BUCKLING OF A CYLINDER                                      /    95 SUN SOLARIS NASTRAN    / MAY 17, 95 / PAGE    48
      NASTRAN DEMONSTRATION PROBLEM NO. D05-01-1A                                                                                   
0             BUCKLING SOLUTION                                                                              SUBCASE 2              
      EIGENVALUE =  0.228891E+01    (CYCLIC FREQUENCY =  2.407876E-01 HZ)

                  S T R E S S E S   I N   G E N E R A L   T R I A N G U L A R   E L E M E N T S       ( C T R I A 1 )
                                                  (IN ELEMENT COORDINATE SYSTEM)

  ELEMENT      FIBRE               STRESSES IN ELEMENT COORD SYSTEM             PRINCIPAL STRESSES (ZERO SHEAR)            MAX
    ID.       DISTANCE           NORMAL-X       NORMAL-Y      SHEAR-XY       ANGLE         MAJOR           MINOR          SHEAR
0       2    1.510220E+00     -9.317251E+00   1.952325E+01  -3.391389E+00   -83.3828    1.991668E+01   -9.710682E+00   1.481368E+01 
             0.0              -5.118811E-02   1.943207E+01  -4.772182E+00   -76.9505    2.053817E+01   -1.157280E+00   1.084772E+01 
0       6    1.510220E+00     -9.317182E+00   1.952280E+01  -3.392085E+00   -83.3814    1.991640E+01   -9.710777E+00   1.481359E+01 
             0.0              -5.117261E-02   1.943205E+01  -4.772913E+00   -76.9487    2.053846E+01   -1.157588E+00   1.084803E+01 
0      10    1.510220E+00     -2.716768E+01   5.666193E+01  -3.056252E+00   -87.9148    5.677320E+01   -2.727896E+01   4.202608E+01 
             0.0              -1.497213E-01   5.639886E+01  -4.305798E+00   -85.6706    5.672485E+01   -4.757023E-01   2.860027E+01 
0      14    1.510220E+00     -2.716756E+01   5.666157E+01  -3.056796E+00   -87.9144    5.677288E+01   -2.727888E+01   4.202588E+01 
             0.0              -1.496368E-01   5.639879E+01  -4.306448E+00   -85.6699    5.672486E+01   -4.757118E-01   2.860029E+01 
0      18    1.510220E+00     -4.235827E+01   8.825633E+01  -2.427737E+00   -88.9355    8.830145E+01   -4.240339E+01   6.535242E+01 
             0.0              -2.335147E-01   8.784687E+01  -3.416803E+00   -87.7818    8.797922E+01   -3.658600E-01   4.417254E+01 
0      22    1.510220E+00     -4.235814E+01   8.825452E+01  -2.428083E+00   -88.9354    8.829964E+01   -4.240326E+01   6.535145E+01 
             0.0              -2.333834E-01   8.784676E+01  -3.417327E+00   -87.7815    8.797914E+01   -3.657684E-01   4.417245E+01 
0      26    1.510220E+00     -5.335112E+01   1.112080E+02  -1.562831E+00   -89.4559    1.112228E+02   -5.336596E+01   8.229440E+01 
             0.0              -2.941287E-01   1.106915E+02  -2.193089E+00   -88.8684    1.107348E+02   -3.374481E-01   5.553613E+01 
0      30    1.510220E+00     -5.335094E+01   1.112062E+02  -1.563245E+00   -89.4558    1.112210E+02   -5.336578E+01   8.229340E+01 
             0.0              -2.939483E-01   1.106914E+02  -2.193451E+00   -88.8682    1.107347E+02   -3.372803E-01   5.553599E+01 
0      34    1.510220E+00     -5.909879E+01   1.232713E+02  -5.405791E-01   -89.8302    1.232729E+02   -5.910039E+01   9.118662E+01 
             0.0              -3.259930E-01   1.226987E+02  -7.553790E-01   -89.6482    1.227033E+02   -3.306351E-01   6.151698E+01 
0      38    1.510220E+00     -5.909819E+01   1.232705E+02  -5.411600E-01   -89.8300    1.232721E+02   -5.909979E+01   9.118597E+01 
             0.0              -3.253983E-01   1.226985E+02  -7.558006E-01   -89.6480    1.227032E+02   -3.300438E-01   6.151661E+01 
0      42    1.510220E+00     -5.909996E+01   1.232722E+02   5.375404E-01    89.8311    1.232738E+02   -5.910155E+01   9.118768E+01 
             0.0              -3.262142E-01   1.226991E+02   7.555966E-01    89.6481    1.227037E+02   -3.308601E-01   6.151730E+01 
0      46    1.510220E+00     -5.910020E+01   1.232715E+02   5.375702E-01    89.8311    1.232731E+02   -5.910178E+01   9.118744E+01 
             0.0              -3.264537E-01   1.226989E+02   7.553787E-01    89.6482    1.227036E+02   -3.310928E-01   6.151734E+01 
0      50    1.510220E+00     -5.335324E+01   1.112085E+02   1.560103E+00    89.4569    1.112233E+02   -5.336803E+01   8.229565E+01 
             0.0              -2.946036E-01   1.106926E+02   2.193105E+00    88.8684    1.107359E+02   -3.379211E-01   5.553690E+01 
0      54    1.510220E+00     -5.335307E+01   1.112078E+02   1.560209E+00    89.4568    1.112226E+02   -5.336786E+01   8.229521E+01 
             0.0              -2.944418E-01   1.106924E+02   2.193352E+00    88.8683    1.107357E+02   -3.377686E-01   5.553675E+01 
0      58    1.510220E+00     -4.236049E+01   8.825817E+01   2.425261E+00    88.9367    8.830318E+01   -4.240550E+01   6.535434E+01 
             0.0              -2.338928E-01   8.784814E+01   3.416876E+00    87.7818    8.798050E+01   -3.662453E-01   4.417337E+01 
1     SYMMETRIC BUCKLING OF A CYLINDER                                      /    95 SUN SOLARIS NASTRAN    / MAY 17, 95 / PAGE    49
      NASTRAN DEMONSTRATION PROBLEM NO. D05-01-1A                                                                                   
0             BUCKLING SOLUTION                                                                              SUBCASE 2              
      EIGENVALUE =  0.228891E+01    (CYCLIC FREQUENCY =  2.407876E-01 HZ)

                  S T R E S S E S   I N   G E N E R A L   T R I A N G U L A R   E L E M E N T S       ( C T R I A 1 )
                                                  (IN ELEMENT COORDINATE SYSTEM)

  ELEMENT      FIBRE               STRESSES IN ELEMENT COORD SYSTEM             PRINCIPAL STRESSES (ZERO SHEAR)            MAX
    ID.       DISTANCE           NORMAL-X       NORMAL-Y      SHEAR-XY       ANGLE         MAJOR           MINOR          SHEAR
0      62    1.510220E+00     -4.236030E+01   8.825693E+01   2.425831E+00    88.9364    8.830196E+01   -4.240533E+01   6.535365E+01 
             0.0              -2.337449E-01   8.784804E+01   3.417305E+00    87.7815    8.798042E+01   -3.661232E-01   4.417327E+01 
0      66    1.510220E+00     -2.716907E+01   5.666352E+01   3.054881E+00    87.9158    5.677470E+01   -2.728024E+01   4.202747E+01 
             0.0              -1.500043E-01   5.639989E+01   4.305948E+00    85.6705    5.672589E+01   -4.759998E-01   2.860094E+01 
0      70    1.510220E+00     -2.716890E+01   5.666261E+01   3.055169E+00    87.9156    5.677380E+01   -2.728009E+01   4.202694E+01 
             0.0              -1.498675E-01   5.639983E+01   4.306484E+00    85.6700    5.672590E+01   -4.759445E-01   2.860092E+01 
0      74    1.510220E+00     -9.317866E+00   1.952422E+01   3.390936E+00    83.3840    1.991753E+01   -9.711172E+00   1.481435E+01 
             0.0              -5.148113E-02   1.943248E+01   4.772472E+00    76.9502    2.053866E+01   -1.157665E+00   1.084816E+01 
0      78    1.510220E+00     -9.317472E+00   1.952392E+01   3.391609E+00    83.3826    1.991739E+01   -9.710941E+00   1.481416E+01 
             0.0              -5.121076E-02   1.943245E+01   4.773004E+00    76.9487    2.053889E+01   -1.157644E+00   1.084827E+01 
1     SYMMETRIC BUCKLING OF A CYLINDER                                      /    95 SUN SOLARIS NASTRAN    / MAY 17, 95 / PAGE    50
      NASTRAN DEMONSTRATION PROBLEM NO. D05-01-1A                                                                                   
0                                                                                                                                   
                                                  MESSAGES FROM THE PLOT MODULE                                                   





 P L O T T E R    D A T A                                                                                                           
                                                                                                                                    
          THE FOLLOWING PLOTS ARE FOR A NASTPLT MICROFILM PLOTTER WITHOUT TYPING CAPABILITY                                         
                                                                                                                                    
          AN END-OF-FILE MARK FOLLOWS THE LAST PLOT                                                                                 
                                                                                                                                    
          THE FIRST COMMAND FOR EACH PLOT CONTAINS THE PLOT NUMBER                                                                  
                                                                                                                                    
          CSCALE =  1.00                                                                                                            
                                                                                                                                    
          THE FOLLOWING PLOTS ARE REQUESTED ON PAPER ONLY                                                                           
                                                                                                                                    




 E N G I N E E R I N G    D A T A                                                                                                   
                                                                                                                                    
          ORTHOGRAPHIC PROJECTION                                                                                                   
          ROTATIONS (DEGREES) - GAMMA =  34.27, BETA =  23.17, ALPHA =   0.00,  AXES = +Y,+X,-Z, SYMMETRIC                          
          SCALE (OBJECT-TO-PLOT SIZE) = 1.153226E-01                                                                                
                                                                                                                                    
          ORIGIN       2   -   X0 = -8.711188E-01, Y0 = -0.298235E+01     (INCHES)                                                  




                                                  PLOT MODULE MESSAGES CONTINUE                                                     
                                                                                                                                    
          PLOT    3   MODAL  DEFORM.     2 - SUBCASE       1 - MODE   9.942567E-01 - EIGENVALUE                                     
          PLOT    4   MODAL  DEFORM.     2 - SUBCASE       2 - MODE   1.274364E+00 - EIGENVALUE                                     
          PLOT    5   MODAL  DEFORM.     2 - SUBCASE       3 - MODE   2.006962E+00 - EIGENVALUE                                     
          PLOT    6   MODAL  DEFORM.     2 - SUBCASE       4 - MODE   2.288906E+00 - EIGENVALUE                                     
                                                 ORIGIN      2  USED IN THIS PLOT                                                   
1     SYMMETRIC BUCKLING OF A CYLINDER                                      /    95 SUN SOLARIS NASTRAN    / MAY 17, 95 / PAGE    51
      NASTRAN DEMONSTRATION PROBLEM NO. D05-01-1A                                                                                   
0                                                                                                                                   
                                                  MESSAGES FROM THE PLOT MODULE                                                   





 P L O T T E R    D A T A                                                                                                           
                                                                                                                                    
          THE FOLLOWING PLOTS ARE FOR A NASTPLT MICROFILM PLOTTER WITHOUT TYPING CAPABILITY                                         
                                                                                                                                    
          AN END-OF-FILE MARK FOLLOWS THE LAST PLOT                                                                                 
                                                                                                                                    
          THE FIRST COMMAND FOR EACH PLOT CONTAINS THE PLOT NUMBER                                                                  
                                                                                                                                    
          CSCALE =  1.00                                                                                                            
                                                                                                                                    
          THE FOLLOWING PLOTS ARE REQUESTED ON PAPER ONLY                                                                           
                                                                                                                                    




 E N G I N E E R I N G    D A T A                                                                                                   
                                                                                                                                    
          ORTHOGRAPHIC PROJECTION                                                                                                   
          ROTATIONS (DEGREES) - GAMMA =   0.00, BETA =   0.00, ALPHA =   0.00,  AXES = +Y,+X,-Z, SYMMETRIC                          
          SCALE (OBJECT-TO-PLOT SIZE) = 1.077510E-01                                                                                
                                                                                                                                    
          ORIGIN       2   -   X0 = -8.711188E-01, Y0 = -0.298235E+01     (INCHES)                                                  
          ORIGIN       1   -   X0 = -5.598906E-01, Y0 = -0.361539E+01     (INCHES)                                                  




                                                  PLOT MODULE MESSAGES CONTINUE                                                     
                                                                                                                                    
          PLOT    7   MODAL  DEFORM.     2 - SUBCASE       1 - MODE   9.942567E-01 - EIGENVALUE                                     
          PLOT    8   MODAL  DEFORM.     2 - SUBCASE       2 - MODE   1.274364E+00 - EIGENVALUE                                     
          PLOT    9   MODAL  DEFORM.     2 - SUBCASE       3 - MODE   2.006962E+00 - EIGENVALUE                                     
          PLOT   10   MODAL  DEFORM.     2 - SUBCASE       4 - MODE   2.288906E+00 - EIGENVALUE                                     
                                                 ORIGIN      1  USED IN THIS PLOT                                                   




                                        * * * END OF JOB * * *
1
 JOB TITLE =  SYMMETRIC BUCKLING OF A CYLINDER                                   
 DATE:  5/17/95
 END TIME: 15:48:29
 TOTAL WALL CLOCK TIME      3 SEC.
 
