





                                  ****
                                *      *
                               *        *
                               *  N A S T R A N
                               *        *
                                *      *
                                  ****


                             SUN COMPUTER SYSTEMS    
                                SOLARIS VERSION

                          SYSTEM RELEASE -  1995 ED.

                                DISTRIBUTED BY

         COMPUTER SOFTWARE MANAGEMENT AND INFORMATION CENTER (COSMIC)
                 UNIVERSITY OF GEORGIA, ATHENS, GEORGIA 30602
                 PHONE: (706)542-3265      FAX: (706)542-4807
1                                                                           /    95 SUN SOLARIS NASTRAN    / MAY 17, 95 / PAGE     2
                                                                                                                                    
0                                                                                                                                   
                                                                                                         
                                                                                                         
                         INSTALLATION CENTER USER INFORMATION GIVEN IN THIS SECTION                      
                                                                                                         
                                     *********************************************                       
                                     *                                           *                       
                                     *  PLEASE READ THE COMMENT IN DEMO PROBLEM  *                       
                                     *  D01002A ABOUT SYSTEM TIMING CONSTANTS    *                       
                                     *                                           *                       
                                     *********************************************                       
                                                                                                         
                         ===X=    TOP OF PAGE REQUEST IF 'X' IS REPLACED BY '='                          
                                                                                                         
1                                                                           /    95 SUN SOLARIS NASTRAN    / MAY 17, 95 / PAGE     3
                                                                                                                                    
0                                                                                                                                   
0*** USER INFORMATION MESSAGE 225, GINO TIME CONSTANTS ARE BEING COMPUTED
     (SEE NASINFO FILE FOR ELIMINATION OF THESE COMPUTATIONS)
1                                                                           /    95 SUN SOLARIS NASTRAN    / MAY 17, 95 / PAGE     4
                                                                                                                                    
0        N A S T R A N    E X E C U T I V E    C O N T R O L    D E C K    E C H O                                                  
0                                                                                                                                   
                                                                                                                                    
                                                                                                                                    
     ID    D06011A,NASTRAN                                                           
     APP   DISPLACEMENT                                                              
     TIME  100                                                                       
     SOL   6,1                                                                       
     CEND                                                                            


0*** USER INFORMATION MESSAGE, TURN DIAG 48 ON FOR NASTRAN RELEASE NEWS, DIAG DEFINITION, NEW DMAP
         MODULES AND NEW BULKDATA CARDS INFORMATION
1     PIECEWISE LINEAR ANALYSIS OF A CRACKED PANEL                          /    95 SUN SOLARIS NASTRAN    / MAY 17, 95 / PAGE     5
      NASTRAN DEMONSTRATION PROBLEM NO. D06-01-1A                                                                                   
0                                                                                                                                   
0                                        C A S E    C O N T R O L   D E C K   E C H O                                               
                 CARD                                                                                                               
                 COUNT                                                                                                              
                  1      TITLE    = PIECEWISE LINEAR ANALYSIS OF A CRACKED PANEL                         
                  2      SUBTITLE = NASTRAN DEMONSTRATION PROBLEM NO. D06-01-1A                          
                  3      MAXLINES = 50000                                                                
                  4      $   ECHO = NONE                                                                 
                  5           SPC = 10                                                                   
                  6          LOAD = 600                                                                  
                  7          PLCOEFFICIENT = 23                                                          
                  8      OUTPUT                                                                          
                  9      $                                                                               
                 10      SET 1 = 1 THRU 26,42,43,50,77,107,137,167,195,222,249,272,293,341,347,          
                 11              348                                                                     
                 12      SET 2 = 1 THRU 36, 196, 200                                                     
                 13      $                                                                               
                 14            DISPLACEMENT = 2                                                          
                 15            OLOAD    = ALL                                                            
                 16            SPCFORCE = ALL                                                            
                 17            STRESS   = 1                                                              
                 18      BEGIN BULK                                                                      


                        (NO. OF UNSORTED BULK DATA CARDS READ =   670, INCLUDING   0 COMMENT CARDS)
0*** USER INFORMATION MESSAGE 207, BULK DATA DECK IS NOT SORTED. NASTRAN WILL RE-ORDER THE INPUT DECK.
1     PIECEWISE LINEAR ANALYSIS OF A CRACKED PANEL                          /    95 SUN SOLARIS NASTRAN    / MAY 17, 95 / PAGE     6
      NASTRAN DEMONSTRATION PROBLEM NO. D06-01-1A                                                                                   
0                                                                                                                                   
0                                                 S O R T E D   B U L K    D A T A    E C H O                                       
                     CARD                                                                                                           
                     COUNT        ---1--- +++2+++ ---3--- +++4+++ ---5--- +++6+++ ---7--- +++8+++ ---9--- +++10+++                  
                    1-        CTRMEM  1       1       7       8       9                                       
                    2-        CTRMEM  2       1       8       12      9                                       
                    3-        CTRMEM  3       1       9       10      12                                      
                    4-        CTRMEM  4       1       10      11      12                                      
                    5-        CTRMEM  5       1       12      13      11                                      
                    6-        CTRMEM  6       1       13      14      11                                      
                    7-        CTRMEM  7       1       15      16      1                                       
                    8-        CTRMEM  8       1       1       2       16                                      
                    9-        CTRMEM  9       1       16      17      2                                       
                   10-        CTRMEM  10      1       2       3       17                                      
                   11-        CTRMEM  11      1       17      18      3                                       
                   12-        CTRMEM  12      1       3       4       18                                      
                   13-        CTRMEM  13      1       18      19      4                                       
                   14-        CTRMEM  14      1       19      20      4                                       
                   15-        CTRMEM  15      1       4       5       20                                      
                   16-        CTRMEM  16      1       5       6       20                                      
                   17-        CTRMEM  17      1       20      21      6                                       
                   18-        CTRMEM  18      1       21      22      6                                       
                   19-        CTRMEM  19      1       6       7       22                                      
                   20-        CTRMEM  20      1       7       22      9       90.0                            
                   21-        CTRMEM  21      1       22      23      9                                       
                   22-        CTRMEM  22      1       9       10      23                                      
                   23-        CTRMEM  23      1       10      11      23                                      
                   24-        CTRMEM  24      1       23      24      11                                      
                   25-        CTRMEM  25      1       14      24      11      90.0                            
                   26-        CTRMEM  26      1       14      26      24                                      
                   27-        CTRMEM  27      1       24      25      26                                      
                   28-        CTRMEM  28      1       15      16      27                                      
                   29-        CTRMEM  29      1       27      28      16                                      
                   30-        CTRMEM  30      1       16      17      28                                      
                   31-        CTRMEM  31      1       28      29      17                                      
                   32-        CTRMEM  32      1       17      18      29                                      
                   33-        CTRMEM  33      1       29      30      18                                      
                   34-        CTRMEM  34      1       18      19      30                                      
                   35-        CTRMEM  35      1       19      20      30                                      
                   36-        CTRMEM  36      1       30      31      20                                      
                   37-        CTRMEM  37      1       31      32      20                                      
                   38-        CTRMEM  38      1       20      21      32                                      
                   39-        CTRMEM  39      1       21      22      32                                      
                   40-        CTRMEM  40      1       32      33      22                                      
                   41-        CTRMEM  41      1       33      34      22                                      
                   42-        CTRMEM  42      1       22      23      34                                      
                   43-        CTRMEM  43      1       23      24      34                                      
                   44-        CTRMEM  44      1       34      35      24                                      
                   45-        CTRMEM  45      1       35      36      24                                      
                   46-        CTRMEM  46      1       24      25      36                                      
                   47-        CTRMEM  47      1       25      38      36                                      
1     PIECEWISE LINEAR ANALYSIS OF A CRACKED PANEL                          /    95 SUN SOLARIS NASTRAN    / MAY 17, 95 / PAGE     7
      NASTRAN DEMONSTRATION PROBLEM NO. D06-01-1A                                                                                   

                                                                                                                                    

                                                  S O R T E D   B U L K    D A T A    E C H O                                       
                     CARD                                                                                                           
                     COUNT        ---1--- +++2+++ ---3--- +++4+++ ---5--- +++6+++ ---7--- +++8+++ ---9--- +++10+++                  
                   48-        CTRMEM  48      1       36      37      38                                      
                   49-        CTRMEM  49      1       25      38      26                                      
                   50-        CTRMEM  50      1       26      39      38                                      
                   51-        CTRMEM  51      1       40      41      27                                      
                   52-        CTRMEM  52      1       27      28      41                                      
                   53-        CTRMEM  53      1       41      42      28                                      
                   54-        CTRMEM  54      1       28      29      42                                      
                   55-        CTRMEM  55      1       42      43      29                                      
                   56-        CTRMEM  56      1       29      30      43                                      
                   57-        CTRMEM  57      1       43      44      30                                      
                   58-        CTRMEM  58      1       44      45      30                                      
                   59-        CTRMEM  59      1       30      31      45                                      
                   60-        CTRMEM  60      1       31      32      45                                      
                   61-        CTRMEM  61      1       45      46      32                                      
                   62-        CTRMEM  62      1       46      47      32                                      
                   63-        CTRMEM  63      1       32      33      47                                      
                   64-        CTRMEM  64      1       33      34      47                                      
                   65-        CTRMEM  65      1       47      48      34                                      
                   66-        CTRMEM  66      1       48      49      34                                      
                   67-        CTRMEM  67      1       34      35      49                                      
                   68-        CTRMEM  68      1       35      36      49                                      
                   69-        CTRMEM  69      1       49      50      36                                      
                   70-        CTRMEM  70      1       50      51      36                                      
                   71-        CTRMEM  71      1       36      37      51                                      
                   72-        CTRMEM  72      1       37      53      51                                      
                   73-        CTRMEM  73      1       51      52      53                                      
                   74-        CTRMEM  74      1       37      53      38                                      
                   75-        CTRMEM  75      1       38      54      53                                      
                   76-        CTRMEM  76      1       38      54      55                                      
                   77-        CTRMEM  77      1       39      55      38                                      
                   78-        CTRMEM  78      1       40      41      56                                      
                   79-        CTRMEM  79      1       56      57      41                                      
                   80-        CTRMEM  80      1       41      42      57                                      
                   81-        CTRMEM  81      1       57      58      42                                      
                   82-        CTRMEM  82      1       42      43      58                                      
                   83-        CTRMEM  83      1       58      59      43                                      
                   84-        CTRMEM  84      1       43      44      59                                      
                   85-        CTRMEM  85      1       44      45      59                                      
                   86-        CTRMEM  86      1       59      60      45                                      
                   87-        CTRMEM  87      1       60      61      45                                      
                   88-        CTRMEM  88      1       45      46      61                                      
                   89-        CTRMEM  89      1       46      47      61                                      
                   90-        CTRMEM  90      1       61      62      47                                      
                   91-        CTRMEM  91      1       62      63      47                                      
                   92-        CTRMEM  92      1       47      48      63                                      
                   93-        CTRMEM  93      1       48      49      63                                      
                   94-        CTRMEM  94      1       63      64      49                                      
1     PIECEWISE LINEAR ANALYSIS OF A CRACKED PANEL                          /    95 SUN SOLARIS NASTRAN    / MAY 17, 95 / PAGE     8
      NASTRAN DEMONSTRATION PROBLEM NO. D06-01-1A                                                                                   

                                                                                                                                    

                                                  S O R T E D   B U L K    D A T A    E C H O                                       
                     CARD                                                                                                           
                     COUNT        ---1--- +++2+++ ---3--- +++4+++ ---5--- +++6+++ ---7--- +++8+++ ---9--- +++10+++                  
                   95-        CTRMEM  95      1       64      65      49                                      
                   96-        CTRMEM  96      1       49      50      65                                      
                   97-        CTRMEM  97      1       50      51      65                                      
                   98-        CTRMEM  98      1       65      66      51                                      
                   99-        CTRMEM  99      1       66      67      51                                      
                  100-        CTRMEM  100     1       51      52      67                                      
                  101-        CTRMEM  101     1       52      69      67                                      
                  102-        CTRMEM  102     1       67      68      69                                      
                  103-        CTRMEM  103     1       52      69      53                                      
                  104-        CTRMEM  104     1       70      69      53      90.0                            
                  105-        CTRMEM  105     1       54      70      53                                      
                  106-        CTRMEM  106     1       54      70      55                                      
                  107-        CTRMEM  107     1       55      71      70                                      
                  108-        CTRMEM  108     1       72      73      56                                      
                  109-        CTRMEM  109     1       56      57      73                                      
                  110-        CTRMEM  110     1       73      74      57                                      
                  111-        CTRMEM  111     1       57      58      74                                      
                  112-        CTRMEM  112     1       74      75      58                                      
                  113-        CTRMEM  113     1       58      59      75                                      
                  114-        CTRMEM  114     1       75      76      59                                      
                  115-        CTRMEM  115     1       59      60      76                                      
                  116-        CTRMEM  116     1       60      61      76                                      
                  117-        CTRMEM  117     1       76      77      61                                      
                  118-        CTRMEM  118     1       77      78      61                                      
                  119-        CTRMEM  119     1       61      62      78                                      
                  120-        CTRMEM  120     1       62      63      78                                      
                  121-        CTRMEM  121     1       78      79      63                                      
                  122-        CTRMEM  122     1       79      80      63                                      
                  123-        CTRMEM  123     1       63      64      80                                      
                  124-        CTRMEM  124     1       64      65      80                                      
                  125-        CTRMEM  125     1       80      81      65                                      
                  126-        CTRMEM  126     1       81      82      65                                      
                  127-        CTRMEM  127     1       65      66      82                                      
                  128-        CTRMEM  128     1       66      67      82                                      
                  129-        CTRMEM  129     1       82      83      67                                      
                  130-        CTRMEM  130     1       83      84      67                                      
                  131-        CTRMEM  131     1       67      68      84                                      
                  132-        CTRMEM  132     1       68      85      84                                      
                  133-        CTRMEM  133     1       68      85      69                                      
                  134-        CTRMEM  134     1       86      85      69      90.0                            
                  135-        CTRMEM  135     1       70      69      86      90.0                            
                  136-        CTRMEM  136     1       87      86      70      90.0                            
                  137-        CTRMEM  137     1       71      87      70                                      
                  138-        CTRMEM  138     1       72      73      88                                      
                  139-        CTRMEM  139     1       88      89      73                                      
                  140-        CTRMEM  140     1       73      74      89                                      
                  141-        CTRMEM  141     1       89      90      74                                      
1     PIECEWISE LINEAR ANALYSIS OF A CRACKED PANEL                          /    95 SUN SOLARIS NASTRAN    / MAY 17, 95 / PAGE     9
      NASTRAN DEMONSTRATION PROBLEM NO. D06-01-1A                                                                                   

                                                                                                                                    

                                                  S O R T E D   B U L K    D A T A    E C H O                                       
                     CARD                                                                                                           
                     COUNT        ---1--- +++2+++ ---3--- +++4+++ ---5--- +++6+++ ---7--- +++8+++ ---9--- +++10+++                  
                  142-        CTRMEM  142     1       74      75      90                                      
                  143-        CTRMEM  143     1       90      91      75                                      
                  144-        CTRMEM  144     1       75      76      91                                      
                  145-        CTRMEM  145     1       91      92      76                                      
                  146-        CTRMEM  146     1       76      77      92                                      
                  147-        CTRMEM  147     1       77      78      92                                      
                  148-        CTRMEM  148     1       92      93      78                                      
                  149-        CTRMEM  149     1       93      94      78                                      
                  150-        CTRMEM  150     1       78      79      94                                      
                  151-        CTRMEM  151     1       79      80      94                                      
                  152-        CTRMEM  152     1       94      95      80                                      
                  153-        CTRMEM  153     1       95      96      80                                      
                  154-        CTRMEM  154     1       80      81      96                                      
                  155-        CTRMEM  155     1       81      82      96                                      
                  156-        CTRMEM  156     1       96      97      82                                      
                  157-        CTRMEM  157     1       97      98      82                                      
                  158-        CTRMEM  158     1       82      83      98                                      
                  159-        CTRMEM  159     1       83      84      98                                      
                  160-        CTRMEM  160     1       98      99      84                                      
                  161-        CTRMEM  161     1       85      99      84      90.0                            
                  162-        CTRMEM  162     1       85      99      100     90.0                            
                  163-        CTRMEM  163     1       101     100     85      90.0                            
                  164-        CTRMEM  164     1       86      85      101     90.0                            
                  165-        CTRMEM  165     1       102     101     86      90.0                            
                  166-        CTRMEM  166     1       86      87      102     90.0                            
                  167-        CTRMEM  167     1       87      103     102                                     
                  168-        CTRMEM  168     1       104     105     88                                      
                  169-        CTRMEM  169     1       88      89      105                                     
                  170-        CTRMEM  170     1       105     106     89                                      
                  171-        CTRMEM  171     1       89      90      106                                     
                  172-        CTRMEM  172     1       106     107     90                                      
                  173-        CTRMEM  173     1       90      91      107                                     
                  174-        CTRMEM  174     1       107     108     91                                      
                  175-        CTRMEM  175     1       91      92      108                                     
                  176-        CTRMEM  176     1       108     109     92                                      
                  177-        CTRMEM  177     1       92      93      109                                     
                  178-        CTRMEM  178     1       93      94      109                                     
                  179-        CTRMEM  179     1       109     110     94                                      
                  180-        CTRMEM  180     1       94      95      110                                     
                  181-        CTRMEM  181     1       95      96      110                                     
                  182-        CTRMEM  182     1       110     111     96                                      
                  183-        CTRMEM  183     1       96      97      111                                     
                  184-        CTRMEM  184     1       97      98      111                                     
                  185-        CTRMEM  185     1       111     112     98                                      
                  186-        CTRMEM  186     1       98      99      112                                     
                  187-        CTRMEM  187     1       112     113     99                                      
                  188-        CTRMEM  188     1       100     113     99      90.0                            
1     PIECEWISE LINEAR ANALYSIS OF A CRACKED PANEL                          /    95 SUN SOLARIS NASTRAN    / MAY 17, 95 / PAGE    10
      NASTRAN DEMONSTRATION PROBLEM NO. D06-01-1A                                                                                   

                                                                                                                                    

                                                  S O R T E D   B U L K    D A T A    E C H O                                       
                     CARD                                                                                                           
                     COUNT        ---1--- +++2+++ ---3--- +++4+++ ---5--- +++6+++ ---7--- +++8+++ ---9--- +++10+++                  
                  189-        CTRMEM  189     1       100     113     114     90.0                            
                  190-        CTRMEM  190     1       115     114     100     90.0                            
                  191-        CTRMEM  191     1       101     100     115     90.0                            
                  192-        CTRMEM  192     1       116     115     101     90.0                            
                  193-        CTRMEM  193     1       102     101     116     90.0                            
                  194-        CTRMEM  194     1       116     117     102     90.0                            
                  195-        CTRMEM  195     1       103     117     102                                     
                  196-        CTRMEM  196     1       104     105     118                                     
                  197-        CTRMEM  197     1       118     119     105                                     
                  198-        CTRMEM  198     1       105     106     119                                     
                  199-        CTRMEM  199     1       119     120     106                                     
                  200-        CTRMEM  200     1       106     107     120                                     
                  201-        CTRMEM  201     1       120     121     107                                     
                  202-        CTRMEM  202     1       107     108     121                                     
                  203-        CTRMEM  203     1       121     122     108                                     
                  204-        CTRMEM  204     1       108     109     122                                     
                  205-        CTRMEM  205     1       122     123     109                                     
                  206-        CTRMEM  206     1       109     110     123                                     
                  207-        CTRMEM  207     1       123     124     110                                     
                  208-        CTRMEM  208     1       110     111     124                                     
                  209-        CTRMEM  209     1       124     125     111                                     
                  210-        CTRMEM  210     1       111     112     125                                     
                  211-        CTRMEM  211     1       125     126     112                                     
                  212-        CTRMEM  212     1       112     113     126                                     
                  213-        CTRMEM  213     1       126     127     113                                     
                  214-        CTRMEM  214     1       114     127     113     90.0                            
                  215-        CTRMEM  215     1       114     129     127                                     
                  216-        CTRMEM  216     1       127     128     129                                     
                  217-        CTRMEM  217     1       114     129     115                                     
                  218-        CTRMEM  218     1       115     130     129                                     
                  219-        CTRMEM  219     1       115     130     131                                     
                  220-        CTRMEM  220     1       116     131     115                                     
                  221-        CTRMEM  221     1       116     131     117                                     
                  222-        CTRMEM  222     1       117     132     131                                     
                  223-        CTRMEM  223     1       118     119     133                                     
                  224-        CTRMEM  224     1       133     134     119                                     
                  225-        CTRMEM  225     1       134     135     119                                     
                  226-        CTRMEM  226     1       119     120     135                                     
                  227-        CTRMEM  227     1       120     121     135                                     
                  228-        CTRMEM  228     1       135     136     121                                     
                  229-        CTRMEM  229     1       136     137     121                                     
                  230-        CTRMEM  230     1       121     122     137                                     
                  231-        CTRMEM  231     1       122     123     137                                     
                  232-        CTRMEM  232     1       137     138     123                                     
                  233-        CTRMEM  233     1       138     139     123                                     
                  234-        CTRMEM  234     1       123     124     139                                     
                  235-        CTRMEM  235     1       124     125     139                                     
1     PIECEWISE LINEAR ANALYSIS OF A CRACKED PANEL                          /    95 SUN SOLARIS NASTRAN    / MAY 17, 95 / PAGE    11
      NASTRAN DEMONSTRATION PROBLEM NO. D06-01-1A                                                                                   

                                                                                                                                    

                                                  S O R T E D   B U L K    D A T A    E C H O                                       
                     CARD                                                                                                           
                     COUNT        ---1--- +++2+++ ---3--- +++4+++ ---5--- +++6+++ ---7--- +++8+++ ---9--- +++10+++                  
                  236-        CTRMEM  236     1       139     140     125                                     
                  237-        CTRMEM  237     1       140     141     125                                     
                  238-        CTRMEM  238     1       125     126     141                                     
                  239-        CTRMEM  239     1       126     127     141                                     
                  240-        CTRMEM  240     1       141     142     127                                     
                  241-        CTRMEM  241     1       142     143     127                                     
                  242-        CTRMEM  242     1       127     128     143                                     
                  243-        CTRMEM  243     1       128     144     143                                     
                  244-        CTRMEM  244     1       128     144     129                                     
                  245-        CTRMEM  245     1       145     144     129     90.0                            
                  246-        CTRMEM  246     1       130     145     129                                     
                  247-        CTRMEM  247     1       130     145     131                                     
                  248-        CTRMEM  248     1       146     145     131     90.0                            
                  249-        CTRMEM  249     1       132     146     131                                     
                  250-        CTRMEM  250     1       147     148     133                                     
                  251-        CTRMEM  251     1       133     134     148                                     
                  252-        CTRMEM  252     1       134     135     148                                     
                  253-        CTRMEM  253     1       148     149     135                                     
                  254-        CTRMEM  254     1       135     136     149                                     
                  255-        CTRMEM  255     1       136     137     149                                     
                  256-        CTRMEM  256     1       149     150     137                                     
                  257-        CTRMEM  257     1       137     138     150                                     
                  258-        CTRMEM  258     1       138     139     150                                     
                  259-        CTRMEM  259     1       150     151     139                                     
                  260-        CTRMEM  260     1       139     140     151                                     
                  261-        CTRMEM  261     1       140     141     151                                     
                  262-        CTRMEM  262     1       151     152     141                                     
                  263-        CTRMEM  263     1       141     142     152                                     
                  264-        CTRMEM  264     1       142     143     152                                     
                  265-        CTRMEM  265     1       152     153     143                                     
                  266-        CTRMEM  266     1       144     153     143     90.0                            
                  267-        CTRMEM  267     1       153     154     144                                     
                  268-        CTRMEM  268     1       144     155     154                                     
                  269-        CTRMEM  269     1       144     155     156                                     
                  270-        CTRMEM  270     1       145     156     144                                     
                  271-        CTRMEM  271     1       145     156     146                                     
                  272-        CTRMEM  272     1       146     157     156                                     
                  273-        CTRMEM  273     1       147     148     158                                     
                  274-        CTRMEM  274     1       158     159     148                                     
                  275-        CTRMEM  275     1       148     149     159                                     
                  276-        CTRMEM  276     1       159     160     149                                     
                  277-        CTRMEM  277     1       149     150     160                                     
                  278-        CTRMEM  278     1       160     161     150                                     
                  279-        CTRMEM  279     1       150     151     161                                     
                  280-        CTRMEM  280     1       161     162     151                                     
                  281-        CTRMEM  281     1       151     152     162                                     
                  282-        CTRMEM  282     1       162     163     152                                     
1     PIECEWISE LINEAR ANALYSIS OF A CRACKED PANEL                          /    95 SUN SOLARIS NASTRAN    / MAY 17, 95 / PAGE    12
      NASTRAN DEMONSTRATION PROBLEM NO. D06-01-1A                                                                                   

                                                                                                                                    

                                                  S O R T E D   B U L K    D A T A    E C H O                                       
                     CARD                                                                                                           
                     COUNT        ---1--- +++2+++ ---3--- +++4+++ ---5--- +++6+++ ---7--- +++8+++ ---9--- +++10+++                  
                  283-        CTRMEM  283     1       152     153     163                                     
                  284-        CTRMEM  284     1       163     164     153                                     
                  285-        CTRMEM  285     1       153     154     164                                     
                  286-        CTRMEM  286     1       164     165     154                                     
                  287-        CTRMEM  287     1       154     166     165                                     
                  288-        CTRMEM  288     1       154     166     167                                     
                  289-        CTRMEM  289     1       155     167     154                                     
                  290-        CTRMEM  290     1       155     167     156                                     
                  291-        CTRMEM  291     1       156     168     167                                     
                  292-        CTRMEM  292     1       156     168     169                                     
                  293-        CTRMEM  293     1       157     169     156                                     
                  294-        CTRMEM  294     1       170     171     158                                     
                  295-        CTRMEM  295     1       158     159     171                                     
                  296-        CTRMEM  296     1       159     160     171                                     
                  297-        CTRMEM  297     1       171     172     160                                     
                  298-        CTRMEM  298     1       172     173     160                                     
                  299-        CTRMEM  299     1       160     161     173                                     
                  300-        CTRMEM  300     1       161     162     173                                     
                  301-        CTRMEM  301     1       173     174     162                                     
                  302-        CTRMEM  302     1       174     175     162                                     
                  303-        CTRMEM  303     1       162     163     175                                     
                  304-        CTRMEM  304     1       163     164     175                                     
                  305-        CTRMEM  305     1       175     176     164                                     
                  306-        CTRMEM  306     1       176     177     164                                     
                  307-        CTRMEM  307     1       164     165     177                                     
                  308-        CTRMEM  308     1       170     171     178                                     
                  309-        CTRMEM  309     1       178     179     171                                     
                  310-        CTRMEM  310     1       171     172     179                                     
                  311-        CTRMEM  311     1       179     180     172                                     
                  312-        CTRMEM  312     1       172     173     180                                     
                  313-        CTRMEM  313     1       173     174     180                                     
                  314-        CTRMEM  314     1       180     181     174                                     
                  315-        CTRMEM  315     1       174     175     181                                     
                  316-        CTRMEM  316     1       181     182     175                                     
                  317-        CTRMEM  317     1       175     176     182                                     
                  318-        CTRMEM  318     1       182     183     176                                     
                  319-        CTRMEM  319     1       176     177     183                                     
                  320-        CTRMEM  320     1       184     185     178                                     
                  321-        CTRMEM  321     1       178     179     185                                     
                  322-        CTRMEM  322     1       179     180     185                                     
                  323-        CTRMEM  323     1       185     186     180                                     
                  324-        CTRMEM  324     1       186     187     180                                     
                  325-        CTRMEM  325     1       180     181     187                                     
                  326-        CTRMEM  326     1       181     182     187                                     
                  327-        CTRMEM  327     1       187     188     182                                     
                  328-        CTRMEM  328     1       188     189     182                                     
                  329-        CTRMEM  329     1       182     183     189                                     
1     PIECEWISE LINEAR ANALYSIS OF A CRACKED PANEL                          /    95 SUN SOLARIS NASTRAN    / MAY 17, 95 / PAGE    13
      NASTRAN DEMONSTRATION PROBLEM NO. D06-01-1A                                                                                   

                                                                                                                                    

                                                  S O R T E D   B U L K    D A T A    E C H O                                       
                     CARD                                                                                                           
                     COUNT        ---1--- +++2+++ ---3--- +++4+++ ---5--- +++6+++ ---7--- +++8+++ ---9--- +++10+++                  
                  330-        CTRMEM  330     1       184     185     190                                     
                  331-        CTRMEM  331     1       190     191     185                                     
                  332-        CTRMEM  332     1       191     192     185                                     
                  333-        CTRMEM  333     1       185     186     192                                     
                  334-        CTRMEM  334     1       186     187     192                                     
                  335-        CTRMEM  335     1       192     193     187                                     
                  336-        CTRMEM  336     1       193     194     187                                     
                  337-        CTRMEM  337     1       187     188     194                                     
                  338-        CTRMEM  338     1       188     189     194                                     
                  339-        CTRMEM  339     1       194     195     189                                     
                  340-        CTRMEM  340     1       190     191     196                                     
                  341-        CTRMEM  341     1       196     197     191                                     
                  342-        CTRMEM  342     1       191     192     197                                     
                  343-        CTRMEM  343     1       197     198     192                                     
                  344-        CTRMEM  344     1       192     193     198                                     
                  345-        CTRMEM  345     1       198     199     193                                     
                  346-        CTRMEM  346     1       193     194     199                                     
                  347-        CTRMEM  347     1       199     200     194                                     
                  348-        CTRMEM  348     1       194     195     200                                     
                  349-        FORCE   600     196             100.    0.0     .375                            
                  350-        FORCE   600     197             100.    0.0     .75                             
                  351-        FORCE   600     198             100.    0.0     .75                             
                  352-        FORCE   600     199             100.    0.0     .75                             
                  353-        FORCE   600     200             100.    0.0     .375                            
                  354-        GRDSET                                                  3456                    
                  355-        GRID    1               0.0     0.0                                             
                  356-        GRID    2               .2      .0                                              
                  357-        GRID    3               .4      .0                                              
                  358-        GRID    4               .6      .0                                              
                  359-        GRID    5               .7      .0                                              
                  360-        GRID    6               .8      .0                                              
                  361-        GRID    7               .9      .0                                              
                  362-        GRID    8               .95     .0                                              
                  363-        GRID    9               .95     .05                                             
                  364-        GRID    10              1.0     .05                                             
                  365-        GRID    11              1.05    .05                                             
                  366-        GRID    12              1.0     .0                                              
                  367-        GRID    13              1.05    .0                                              
                  368-        GRID    14              1.1     .0                                              
                  369-        GRID    15              .0      .1                                              
                  370-        GRID    16              .1      .1                                              
                  371-        GRID    17              .3      .1                                              
                  372-        GRID    18              .5      .1                                              
                  373-        GRID    19              .6      .1                                              
                  374-        GRID    20              .7      .1                                              
                  375-        GRID    21              .8      .1                                              
                  376-        GRID    22              .9      .1                                              
1     PIECEWISE LINEAR ANALYSIS OF A CRACKED PANEL                          /    95 SUN SOLARIS NASTRAN    / MAY 17, 95 / PAGE    14
      NASTRAN DEMONSTRATION PROBLEM NO. D06-01-1A                                                                                   

                                                                                                                                    

                                                  S O R T E D   B U L K    D A T A    E C H O                                       
                     CARD                                                                                                           
                     COUNT        ---1--- +++2+++ ---3--- +++4+++ ---5--- +++6+++ ---7--- +++8+++ ---9--- +++10+++                  
                  377-        GRID    23              1.0     .1                                              
                  378-        GRID    24              1.1     .1                                              
                  379-        GRID    25              1.2     .1                                              
                  380-        GRID    26              1.2     .0                                              
                  381-        GRID    27              .0      .2                                              
                  382-        GRID    28              .2      .2                                              
                  383-        GRID    29              .4      .2                                              
                  384-        GRID    30              .6      .2                                              
                  385-        GRID    31              .7      .2                                              
                  386-        GRID    32              .8      .2                                              
                  387-        GRID    33              .9      .2                                              
                  388-        GRID    34              1.0     .2                                              
                  389-        GRID    35              1.1     .2                                              
                  390-        GRID    36              1.2     .2                                              
                  391-        GRID    37              1.3     .2                                              
                  392-        GRID    38              1.3     .1                                              
                  393-        GRID    39              1.3     .0                                              
                  394-        GRID    40              .0      .3                                              
                  395-        GRID    41              .1      .3                                              
                  396-        GRID    42              .3      .3                                              
                  397-        GRID    43              .5      .3                                              
                  398-        GRID    44              .6      .3                                              
                  399-        GRID    45              .7      .3                                              
                  400-        GRID    46              .8      .3                                              
                  401-        GRID    47              .9      .3                                              
                  402-        GRID    48              1.0     .3                                              
                  403-        GRID    49              1.1     .3                                              
                  404-        GRID    50              1.2     .3                                              
                  405-        GRID    51              1.3     .3                                              
                  406-        GRID    52              1.4     .3                                              
                  407-        GRID    53              1.4     .2                                              
                  408-        GRID    54              1.4     .1                                              
                  409-        GRID    55              1.4     .0                                              
                  410-        GRID    56              .0      .4                                              
                  411-        GRID    57              .2      .4                                              
                  412-        GRID    58              .4      .4                                              
                  413-        GRID    59              .6      .4                                              
                  414-        GRID    60              .7      .4                                              
                  415-        GRID    61              .8      .4                                              
                  416-        GRID    62              .9      .4                                              
                  417-        GRID    63              1.0     .4                                              
                  418-        GRID    64              1.1     .4                                              
                  419-        GRID    65              1.2     .4                                              
                  420-        GRID    66              1.3     .4                                              
                  421-        GRID    67              1.4     .4                                              
                  422-        GRID    68              1.5     .4                                              
                  423-        GRID    69              1.5     .3                                              
1     PIECEWISE LINEAR ANALYSIS OF A CRACKED PANEL                          /    95 SUN SOLARIS NASTRAN    / MAY 17, 95 / PAGE    15
      NASTRAN DEMONSTRATION PROBLEM NO. D06-01-1A                                                                                   

                                                                                                                                    

                                                  S O R T E D   B U L K    D A T A    E C H O                                       
                     CARD                                                                                                           
                     COUNT        ---1--- +++2+++ ---3--- +++4+++ ---5--- +++6+++ ---7--- +++8+++ ---9--- +++10+++                  
                  424-        GRID    70              1.5     .1                                              
                  425-        GRID    71              1.5     .0                                              
                  426-        GRID    72              .0      .5                                              
                  427-        GRID    73              .1      .5                                              
                  428-        GRID    74              .3      .5                                              
                  429-        GRID    75              .5      .5                                              
                  430-        GRID    76              .7      .5                                              
                  431-        GRID    77              .8      .5                                              
                  432-        GRID    78              .9      .5                                              
                  433-        GRID    79              1.0     .5                                              
                  434-        GRID    80              1.1     .5                                              
                  435-        GRID    81              1.2     .5                                              
                  436-        GRID    82              1.3     .5                                              
                  437-        GRID    83              1.4     .5                                              
                  438-        GRID    84              1.5     .5                                              
                  439-        GRID    85              1.6     .4                                              
                  440-        GRID    86              1.6     .2                                              
                  441-        GRID    87              1.6     .0                                              
                  442-        GRID    88              .0      .6                                              
                  443-        GRID    89              .2      .6                                              
                  444-        GRID    90              .4      .6                                              
                  445-        GRID    91              .6      .6                                              
                  446-        GRID    92              .8      .6                                              
                  447-        GRID    93              .9      .6                                              
                  448-        GRID    94              1.0     .6                                              
                  449-        GRID    95              1.1     .6                                              
                  450-        GRID    96              1.2     .6                                              
                  451-        GRID    97              1.3     .6                                              
                  452-        GRID    98              1.4     .6                                              
                  453-        GRID    99              1.6     .6                                              
                  454-        GRID    100             1.7     .5                                              
                  455-        GRID    101             1.7     .3                                              
                  456-        GRID    102             1.7     .1                                              
                  457-        GRID    103             1.7     .0                                              
                  458-        GRID    104             .0      .7                                              
                  459-        GRID    105             .1      .7                                              
                  460-        GRID    106             .3      .7                                              
                  461-        GRID    107             .5      .7                                              
                  462-        GRID    108             .7      .7                                              
                  463-        GRID    109             .9      .7                                              
                  464-        GRID    110             1.1     .7                                              
                  465-        GRID    111             1.3     .7                                              
                  466-        GRID    112             1.5     .7                                              
                  467-        GRID    113             1.7     .7                                              
                  468-        GRID    114             1.8     .6                                              
                  469-        GRID    115             1.8     .4                                              
                  470-        GRID    116             1.8     .2                                              
1     PIECEWISE LINEAR ANALYSIS OF A CRACKED PANEL                          /    95 SUN SOLARIS NASTRAN    / MAY 17, 95 / PAGE    16
      NASTRAN DEMONSTRATION PROBLEM NO. D06-01-1A                                                                                   

                                                                                                                                    

                                                  S O R T E D   B U L K    D A T A    E C H O                                       
                     CARD                                                                                                           
                     COUNT        ---1--- +++2+++ ---3--- +++4+++ ---5--- +++6+++ ---7--- +++8+++ ---9--- +++10+++                  
                  471-        GRID    117             1.8     .0                                              
                  472-        GRID    118             .0      .8                                              
                  473-        GRID    119             .2      .8                                              
                  474-        GRID    120             .4      .8                                              
                  475-        GRID    121             .6      .8                                              
                  476-        GRID    122             .8      .8                                              
                  477-        GRID    123             1.0     .8                                              
                  478-        GRID    124             1.2     .8                                              
                  479-        GRID    125             1.4     .8                                              
                  480-        GRID    126             1.6     .8                                              
                  481-        GRID    127             1.8     .8                                              
                  482-        GRID    128             2.0     .8                                              
                  483-        GRID    129             2.0     .6                                              
                  484-        GRID    130             2.0     .4                                              
                  485-        GRID    131             2.0     .2                                              
                  486-        GRID    132             2.0     .0                                              
                  487-        GRID    133             .0      1.0                                             
                  488-        GRID    134             .2      1.0                                             
                  489-        GRID    135             .4      1.0                                             
                  490-        GRID    136             .6      1.0                                             
                  491-        GRID    137             .8      1.0                                             
                  492-        GRID    138             1.0     1.0                                             
                  493-        GRID    139             1.2     1.0                                             
                  494-        GRID    140             1.4     1.0                                             
                  495-        GRID    141             1.6     1.0                                             
                  496-        GRID    142             1.8     1.0                                             
                  497-        GRID    143             2.0     1.0                                             
                  498-        GRID    144             2.2     .8                                              
                  499-        GRID    145             2.2     .4                                              
                  500-        GRID    146             2.2     .0                                              
                  501-        GRID    147             .0      1.2                                             
                  502-        GRID    148             .2      1.2                                             
                  503-        GRID    149             .6      1.2                                             
                  504-        GRID    150             1.0     1.2                                             
                  505-        GRID    151             1.4     1.2                                             
                  506-        GRID    152             1.8     1.2                                             
                  507-        GRID    153             2.2     1.2                                             
                  508-        GRID    154             2.6     1.2                                             
                  509-        GRID    155             2.6     .8                                              
                  510-        GRID    156             2.6     .4                                              
                  511-        GRID    157             2.6     .0                                              
                  512-        GRID    158             .0      1.6                                             
                  513-        GRID    159             .4      1.6                                             
                  514-        GRID    160             .8      1.6                                             
                  515-        GRID    161             1.2     1.6                                             
                  516-        GRID    162             1.6     1.6                                             
                  517-        GRID    163             2.0     1.6                                             
1     PIECEWISE LINEAR ANALYSIS OF A CRACKED PANEL                          /    95 SUN SOLARIS NASTRAN    / MAY 17, 95 / PAGE    17
      NASTRAN DEMONSTRATION PROBLEM NO. D06-01-1A                                                                                   

                                                                                                                                    

                                                  S O R T E D   B U L K    D A T A    E C H O                                       
                     CARD                                                                                                           
                     COUNT        ---1--- +++2+++ ---3--- +++4+++ ---5--- +++6+++ ---7--- +++8+++ ---9--- +++10+++                  
                  518-        GRID    164             2.5     1.6                                             
                  519-        GRID    165             3.0     1.6                                             
                  520-        GRID    166             3.0     1.2                                             
                  521-        GRID    167             3.0     .8                                              
                  522-        GRID    168             3.0     .4                                              
                  523-        GRID    169             3.0     .0                                              
                  524-        GRID    170             .0      2.1                                             
                  525-        GRID    171             .4      2.1                                             
                  526-        GRID    172             .8      2.1                                             
                  527-        GRID    173             1.2     2.1                                             
                  528-        GRID    174             1.6     2.1                                             
                  529-        GRID    175             2.0     2.1                                             
                  530-        GRID    176             2.5     2.1                                             
                  531-        GRID    177             3.0     2.1                                             
                  532-        GRID    178             .0      2.6                                             
                  533-        GRID    179             .6      2.6                                             
                  534-        GRID    180             1.2     2.6                                             
                  535-        GRID    181             1.8     2.6                                             
                  536-        GRID    182             2.4     2.6                                             
                  537-        GRID    183             3.0     2.6                                             
                  538-        GRID    184             .0      3.2                                             
                  539-        GRID    185             .6      3.2                                             
                  540-        GRID    186             1.2     3.2                                             
                  541-        GRID    187             1.8     3.2                                             
                  542-        GRID    188             2.4     3.2                                             
                  543-        GRID    189             3.0     3.2                                             
                  544-        GRID    190             .0      3.8                                             
                  545-        GRID    191             .6      3.8                                             
                  546-        GRID    192             1.2     3.8                                             
                  547-        GRID    193             1.8     3.8                                             
                  548-        GRID    194             2.4     3.8                                             
                  549-        GRID    195             3.0     3.8                                             
                  550-        GRID    196             .0      4.5                                             
                  551-        GRID    197             .75     4.5                                             
                  552-        GRID    198             1.5     4.5                                             
                  553-        GRID    199             2.25    4.5                                             
                  554-        GRID    200             3.0     4.5                                             
                  555-        LOAD    2300    23.     1.0     600                                             
                  556-        MAT1    60      10.8+6          .3333                                   +M1     
                  557-        +M1     11.5+3  11.5+3                                                          
                  558-        MATS1   60      101                                                             
                  559-        PLFACT  23      23.     25.     28.     31.     34.     37.     40.     +A-PLF  
                  560-        +A-PLF  44.     48.     52.     56.     60.     65.     70.     75.     +B-PLF  
                  561-        +B-PLF  80.     85.     90.     95.     100.    105.    110.    115.    +C-PLF  
                  562-        +C-PLF  120.    125.    130.                                                    
                  563-        PTRMEM  1       60      1.0                                                     
                  564-        SPC1    10      1       1       15      27      40      56      72      + SPC1-1
1     PIECEWISE LINEAR ANALYSIS OF A CRACKED PANEL                          /    95 SUN SOLARIS NASTRAN    / MAY 17, 95 / PAGE    18
      NASTRAN DEMONSTRATION PROBLEM NO. D06-01-1A                                                                                   

                                                                                                                                    

[...]
           169      G      0.0           -2.294644E+03   0.0            0.0            0.0            0.0                           
           170      G     -4.043834E+02   0.0            0.0            0.0            0.0            0.0                           
           178      G     -5.432723E+02   0.0            0.0            0.0            0.0            0.0                           
           184      G     -6.971454E+02   0.0            0.0            0.0            0.0            0.0                           
           190      G     -9.923931E+02   0.0            0.0            0.0            0.0            0.0                           
           196      G     -9.108669E+02   0.0            0.0            0.0            0.0            0.0                           
1     PIECEWISE LINEAR ANALYSIS OF A CRACKED PANEL                          /    95 SUN SOLARIS NASTRAN    / MAY 17, 95 / PAGE   148
      NASTRAN DEMONSTRATION PROBLEM NO. D06-01-1A                                                                                   
0                                                                                    LOAD FACTOR 23                                 
 
                               F O R C E S   O F   S I N G L E - P O I N T   C O N S T R A I N T
 
      POINT ID.   TYPE          T1             T2             T3             R1             R2             R3
             1      G      6.392648E+02   0.0            0.0            0.0            0.0            0.0                           
            12      G      0.0           -1.641651E+03   0.0            0.0            0.0            0.0                           
            13      G      0.0           -1.096055E+03   0.0            0.0            0.0            0.0                           
            14      G      0.0           -2.323693E+03   0.0            0.0            0.0            0.0                           
            15      G      1.017487E+03   0.0            0.0            0.0            0.0            0.0                           
            26      G      0.0           -1.743027E+03   0.0            0.0            0.0            0.0                           
            27      G      7.965348E+02   0.0            0.0            0.0            0.0            0.0                           
            39      G      0.0           -1.859771E+03   0.0            0.0            0.0            0.0                           
            40      G      5.865812E+02   0.0            0.0            0.0            0.0            0.0                           
            55      G      0.0           -1.838460E+03   0.0            0.0            0.0            0.0                           
            56      G      4.270098E+02   0.0            0.0            0.0            0.0            0.0                           
            71      G      0.0           -1.728971E+03   0.0            0.0            0.0            0.0                           
            72      G      2.849596E+02   0.0            0.0            0.0            0.0            0.0                           
            87      G      0.0           -2.436782E+03   0.0            0.0            0.0            0.0                           
            88      G      1.830777E+02   0.0            0.0            0.0            0.0            0.0                           
           103      G      0.0           -1.566856E+03   0.0            0.0            0.0            0.0                           
           104      G      1.060925E+02   0.0            0.0            0.0            0.0            0.0                           
           117      G      0.0           -2.717621E+03   0.0            0.0            0.0            0.0                           
           118      G      9.505948E+01   0.0            0.0            0.0            0.0            0.0                           
           132      G      0.0           -2.985589E+03   0.0            0.0            0.0            0.0                           
           133      G     -3.811583E+01   0.0            0.0            0.0            0.0            0.0                           
           146      G      0.0           -4.648826E+03   0.0            0.0            0.0            0.0                           
           147      G     -1.532634E+02   0.0            0.0            0.0            0.0            0.0                           
           157      G      0.0           -5.513658E+03   0.0            0.0            0.0            0.0                           
           158      G     -2.544700E+02   0.0            0.0            0.0            0.0            0.0                           
           169      G      0.0           -2.399042E+03   0.0            0.0            0.0            0.0                           
           170      G     -4.227341E+02   0.0            0.0            0.0            0.0            0.0                           
           178      G     -5.692641E+02   0.0            0.0            0.0            0.0            0.0                           
           184      G     -7.284389E+02   0.0            0.0            0.0            0.0            0.0                           
           190      G     -1.029854E+03   0.0            0.0            0.0            0.0            0.0                           
           196      G     -9.399268E+02   0.0            0.0            0.0            0.0            0.0                           
1     PIECEWISE LINEAR ANALYSIS OF A CRACKED PANEL                          /    95 SUN SOLARIS NASTRAN    / MAY 17, 95 / PAGE   149
      NASTRAN DEMONSTRATION PROBLEM NO. D06-01-1A                                                                                   
0                                                                                    LOAD FACTOR 24                                 
 
                               F O R C E S   O F   S I N G L E - P O I N T   C O N S T R A I N T
 
      POINT ID.   TYPE          T1             T2             T3             R1             R2             R3
             1      G      6.644657E+02   0.0            0.0            0.0            0.0            0.0                           
            12      G      0.0           -1.715080E+03   0.0            0.0            0.0            0.0                           
            13      G      0.0           -1.117284E+03   0.0            0.0            0.0            0.0                           
            14      G      0.0           -2.459897E+03   0.0            0.0            0.0            0.0                           
            15      G      1.095855E+03   0.0            0.0            0.0            0.0            0.0                           
            26      G      0.0           -1.775992E+03   0.0            0.0            0.0            0.0                           
            27      G      8.561036E+02   0.0            0.0            0.0            0.0            0.0                           
            39      G      0.0           -1.919424E+03   0.0            0.0            0.0            0.0                           
            40      G      6.260306E+02   0.0            0.0            0.0            0.0            0.0                           
            55      G      0.0           -1.919037E+03   0.0            0.0            0.0            0.0                           
            56      G      4.509545E+02   0.0            0.0            0.0            0.0            0.0                           
            71      G      0.0           -1.767170E+03   0.0            0.0            0.0            0.0                           
            72      G      2.951412E+02   0.0            0.0            0.0            0.0            0.0                           
            87      G      0.0           -2.727461E+03   0.0            0.0            0.0            0.0                           
            88      G      1.842447E+02   0.0            0.0            0.0            0.0            0.0                           
           103      G      0.0           -1.571558E+03   0.0            0.0            0.0            0.0                           
           104      G      1.004884E+02   0.0            0.0            0.0            0.0            0.0                           
           117      G      0.0           -2.911619E+03   0.0            0.0            0.0            0.0                           
           118      G      8.196846E+01   0.0            0.0            0.0            0.0            0.0                           
           132      G      0.0           -3.043508E+03   0.0            0.0            0.0            0.0                           
           133      G     -6.126877E+01   0.0            0.0            0.0            0.0            0.0                           
           146      G      0.0           -4.904898E+03   0.0            0.0            0.0            0.0                           
           147      G     -1.819145E+02   0.0            0.0            0.0            0.0            0.0                           
           157      G      0.0           -5.680808E+03   0.0            0.0            0.0            0.0                           
           158      G     -2.845096E+02   0.0            0.0            0.0            0.0            0.0                           
           169      G      0.0           -2.486266E+03   0.0            0.0            0.0            0.0                           
           170      G     -4.532112E+02   0.0            0.0            0.0            0.0            0.0                           
           178      G     -6.081337E+02   0.0            0.0            0.0            0.0            0.0                           
           184      G     -7.630699E+02   0.0            0.0            0.0            0.0            0.0                           
           190      G     -1.056379E+03   0.0            0.0            0.0            0.0            0.0                           
           196      G     -9.467655E+02   0.0            0.0            0.0            0.0            0.0                           
1     PIECEWISE LINEAR ANALYSIS OF A CRACKED PANEL                          /    95 SUN SOLARIS NASTRAN    / MAY 17, 95 / PAGE   150
      NASTRAN DEMONSTRATION PROBLEM NO. D06-01-1A                                                                                   
0                                                                                    LOAD FACTOR 25                                 
 
                               F O R C E S   O F   S I N G L E - P O I N T   C O N S T R A I N T
 
      POINT ID.   TYPE          T1             T2             T3             R1             R2             R3
             1      G      6.873404E+02   0.0            0.0            0.0            0.0            0.0                           
            12      G      0.0           -1.791682E+03   0.0            0.0            0.0            0.0                           
            13      G      0.0           -1.138630E+03   0.0            0.0            0.0            0.0                           
            14      G      0.0           -2.598635E+03   0.0            0.0            0.0            0.0                           
            15      G      1.187548E+03   0.0            0.0            0.0            0.0            0.0                           
            26      G      0.0           -1.808042E+03   0.0            0.0            0.0            0.0                           
            27      G      9.274359E+02   0.0            0.0            0.0            0.0            0.0                           
            39      G      0.0           -1.978277E+03   0.0            0.0            0.0            0.0                           
            40      G      6.728282E+02   0.0            0.0            0.0            0.0            0.0                           
            55      G      0.0           -1.997600E+03   0.0            0.0            0.0            0.0                           
            56      G      4.790727E+02   0.0            0.0            0.0            0.0            0.0                           
            71      G      0.0           -1.801214E+03   0.0            0.0            0.0            0.0                           
            72      G      3.067199E+02   0.0            0.0            0.0            0.0            0.0                           
            87      G      0.0           -3.039701E+03   0.0            0.0            0.0            0.0                           
            88      G      1.849543E+02   0.0            0.0            0.0            0.0            0.0                           
           103      G      0.0           -1.564393E+03   0.0            0.0            0.0            0.0                           
           104      G      9.310640E+01   0.0            0.0            0.0            0.0            0.0                           
           117      G      0.0           -3.111246E+03   0.0            0.0            0.0            0.0                           
           118      G      6.521801E+01   0.0            0.0            0.0            0.0            0.0                           
           132      G      0.0           -3.087696E+03   0.0            0.0            0.0            0.0                           
           133      G     -9.027861E+01   0.0            0.0            0.0            0.0            0.0                           
           146      G      0.0           -5.179782E+03   0.0            0.0            0.0            0.0                           
           147      G     -2.186662E+02   0.0            0.0            0.0            0.0            0.0                           
           157      G      0.0           -5.840419E+03   0.0            0.0            0.0            0.0                           
           158      G     -3.270160E+02   0.0            0.0            0.0            0.0            0.0                           
           169      G      0.0           -2.562684E+03   0.0            0.0            0.0            0.0                           
           170      G     -4.960377E+02   0.0            0.0            0.0            0.0            0.0                           
           178      G     -6.616006E+02   0.0            0.0            0.0            0.0            0.0                           
           184      G     -8.070538E+02   0.0            0.0            0.0            0.0            0.0                           
           190      G     -1.077268E+03   0.0            0.0            0.0            0.0            0.0                           
           196      G     -9.263033E+02   0.0            0.0            0.0            0.0            0.0                           
1     PIECEWISE LINEAR ANALYSIS OF A CRACKED PANEL                          /    95 SUN SOLARIS NASTRAN    / MAY 17, 95 / PAGE   151
      NASTRAN DEMONSTRATION PROBLEM NO. D06-01-1A                                                                                   
0                                                                                    LOAD FACTOR 26                                 
 
                               F O R C E S   O F   S I N G L E - P O I N T   C O N S T R A I N T
 
      POINT ID.   TYPE          T1             T2             T3             R1             R2             R3
             1      G      7.087701E+02   0.0            0.0            0.0            0.0            0.0                           
            12      G      0.0           -1.871181E+03   0.0            0.0            0.0            0.0                           
            13      G      0.0           -1.160410E+03   0.0            0.0            0.0            0.0                           
            14      G      0.0           -2.738544E+03   0.0            0.0            0.0            0.0                           
            15      G      1.265886E+03   0.0            0.0            0.0            0.0            0.0                           
            26      G      0.0           -1.839818E+03   0.0            0.0            0.0            0.0                           
            27      G      1.017402E+03   0.0            0.0            0.0            0.0            0.0                           
            39      G      0.0           -2.036389E+03   0.0            0.0            0.0            0.0                           
            40      G      7.318008E+02   0.0            0.0            0.0            0.0            0.0                           
            55      G      0.0           -2.072548E+03   0.0            0.0            0.0            0.0                           
            56      G      5.151075E+02   0.0            0.0            0.0            0.0            0.0                           
            71      G      0.0           -1.832737E+03   0.0            0.0            0.0            0.0                           
            72      G      3.226018E+02   0.0            0.0            0.0            0.0            0.0                           
            87      G      0.0           -3.369070E+03   0.0            0.0            0.0            0.0                           
            88      G      1.876572E+02   0.0            0.0            0.0            0.0            0.0                           
           103      G      0.0           -1.546449E+03   0.0            0.0            0.0            0.0                           
           104      G      8.610998E+01   0.0            0.0            0.0            0.0            0.0                           
           117      G      0.0           -3.312552E+03   0.0            0.0            0.0            0.0                           
           118      G      4.782116E+01   0.0            0.0            0.0            0.0            0.0                           
           132      G      0.0           -3.117485E+03   0.0            0.0            0.0            0.0                           
           133      G     -1.231636E+02   0.0            0.0            0.0            0.0            0.0                           
           146      G      0.0           -5.473612E+03   0.0            0.0            0.0            0.0                           
           147      G     -2.633490E+02   0.0            0.0            0.0            0.0            0.0                           
           157      G      0.0           -5.995012E+03   0.0            0.0            0.0            0.0                           
           158      G     -3.772632E+02   0.0            0.0            0.0            0.0            0.0                           
           169      G      0.0           -2.634194E+03   0.0            0.0            0.0            0.0                           
           170      G     -5.469943E+02   0.0            0.0            0.0            0.0            0.0                           
           178      G     -7.285244E+02   0.0            0.0            0.0            0.0            0.0                           
           184      G     -8.665781E+02   0.0            0.0            0.0            0.0            0.0                           
           190      G     -1.102904E+03   0.0            0.0            0.0            0.0            0.0                           
           196      G     -8.743794E+02   0.0            0.0            0.0            0.0            0.0                           




                                        * * * END OF JOB * * *
1
 JOB TITLE =  PIECEWISE LINEAR ANALYSIS OF A CRACKED PANEL                       
 DATE:  5/17/95
 END TIME: 15:52:37
 TOTAL WALL CLOCK TIME      4 SEC.
 
