





                                  ****
                                *      *
                               *        *
                               *  N A S T R A N
                               *        *
                                *      *
                                  ****


                             SUN COMPUTER SYSTEMS    
                                SOLARIS VERSION

                          SYSTEM RELEASE -  1995 ED.

                                DISTRIBUTED BY

         COMPUTER SOFTWARE MANAGEMENT AND INFORMATION CENTER (COSMIC)
                 UNIVERSITY OF GEORGIA, ATHENS, GEORGIA 30602
                 PHONE: (706)542-3265      FAX: (706)542-4807
1                                                                           /    95 SUN SOLARIS NASTRAN    / MAY 17, 95 / PAGE     2
                                                                                                                                    
0                                                                                                                                   
                                                                                                         
                                                                                                         
                         INSTALLATION CENTER USER INFORMATION GIVEN IN THIS SECTION                      
                                                                                                         
                                     *********************************************                       
                                     *                                           *                       
                                     *  PLEASE READ THE COMMENT IN DEMO PROBLEM  *                       
                                     *  D01002A ABOUT SYSTEM TIMING CONSTANTS    *                       
                                     *                                           *                       
                                     *********************************************                       
                                                                                                         
                         ===X=    TOP OF PAGE REQUEST IF 'X' IS REPLACED BY '='                          
                                                                                                         
1                                                                           /    95 SUN SOLARIS NASTRAN    / MAY 17, 95 / PAGE     3
                                                                                                                                    
0                                                                                                                                   
0*** USER INFORMATION MESSAGE 225, GINO TIME CONSTANTS ARE BEING COMPUTED
     (SEE NASINFO FILE FOR ELIMINATION OF THESE COMPUTATIONS)
1                                                                           /    95 SUN SOLARIS NASTRAN    / MAY 17, 95 / PAGE     4
                                                                                                                                    
0        N A S T R A N    E X E C U T I V E    C O N T R O L    D E C K    E C H O                                                  
0                                                                                                                                   
                                                                                                                                    
                                                                                                                                    
     ID    D07011A,NASTRAN                                                           
     TIME  15                                                                        
     APP   DISP                                                                      
     SOL   7,1                                                                       
     CEND                                                                            


0*** USER INFORMATION MESSAGE, TURN DIAG 48 ON FOR NASTRAN RELEASE NEWS, DIAG DEFINITION, NEW DMAP
         MODULES AND NEW BULKDATA CARDS INFORMATION
1     COMPLEX EIGENVALUES OF A 500 CELL STRING                              /    95 SUN SOLARIS NASTRAN    / MAY 17, 95 / PAGE     5
      NASTRAN DEMONSTRATION PROBLEM NO. D07-01-1A                                                                                   
0                                                                                                                                   
0                                        C A S E    C O N T R O L   D E C K   E C H O                                               
                 CARD                                                                                                               
                 COUNT                                                                                                              
                  1      TITLE    = COMPLEX EIGENVALUES OF A 500 CELL STRING                             
                  2      SUBTITLE = NASTRAN DEMONSTRATION PROBLEM NO. D07-01-1A                          
                  3       CMETHOD = 1   $  FEER                                                          
                  4      OUTPUT                                                                          
                  5         SET 1 = 1,51,101,151,201,251,301,351,401,451,501                             
                  6          DISP = 1                                                                    
                  7      BEGIN BULK                                                                      


                        (NO. OF UNSORTED BULK DATA CARDS READ =   758, INCLUDING   0 COMMENT CARDS)
0*** USER INFORMATION MESSAGE 207, BULK DATA DECK IS NOT SORTED. NASTRAN WILL RE-ORDER THE INPUT DECK.
1     COMPLEX EIGENVALUES OF A 500 CELL STRING                              /    95 SUN SOLARIS NASTRAN    / MAY 17, 95 / PAGE     6
      NASTRAN DEMONSTRATION PROBLEM NO. D07-01-1A                                                                                   
0                                                                                                                                   
0                                                 S O R T E D   B U L K    D A T A    E C H O                                       
                     CARD                                                                                                           
                     COUNT        ---1--- +++2+++ ---3--- +++4+++ ---5--- +++6+++ ---7--- +++8+++ ---9--- +++10+++                  
                    1-        CDAMP3  60002   401     2       0                                               
                    2-        CDAMP3  60003   401     3       0       60004   401     4       0               
                    3-        CDAMP3  60005   401     5       0       60006   401     6       0               
                    4-        CDAMP3  60007   401     7       0       60008   401     8       0               
                    5-        CDAMP3  60009   401     9       0       60010   401     10      0               
                    6-        CDAMP3  60011   401     11      0       60012   401     12      0               
                    7-        CDAMP3  60013   401     13      0       60014   401     14      0               
                    8-        CDAMP3  60015   401     15      0       60016   401     16      0               
                    9-        CDAMP3  60017   401     17      0       60018   401     18      0               
                   10-        CDAMP3  60019   401     19      0       60020   401     20      0               
                   11-        CDAMP3  60021   401     21      0       60022   401     22      0               
                   12-        CDAMP3  60023   401     23      0       60024   401     24      0               
                   13-        CDAMP3  60025   401     25      0       60026   401     26      0               
                   14-        CDAMP3  60027   401     27      0       60028   401     28      0               
                   15-        CDAMP3  60029   401     29      0       60030   401     30      0               
                   16-        CDAMP3  60031   401     31      0       60032   401     32      0               
                   17-        CDAMP3  60033   401     33      0       60034   401     34      0               
                   18-        CDAMP3  60035   401     35      0       60036   401     36      0               
                   19-        CDAMP3  60037   401     37      0       60038   401     38      0               
                   20-        CDAMP3  60039   401     39      0       60040   401     40      0               
                   21-        CDAMP3  60041   401     41      0       60042   401     42      0               
                   22-        CDAMP3  60043   401     43      0       60044   401     44      0               
                   23-        CDAMP3  60045   401     45      0       60046   401     46      0               
                   24-        CDAMP3  60047   401     47      0       60048   401     48      0               
                   25-        CDAMP3  60049   401     49      0       60050   401     50      0               
                   26-        CDAMP3  60051   401     51      0       60052   401     52      0               
                   27-        CDAMP3  60053   401     53      0       60054   401     54      0               
                   28-        CDAMP3  60055   401     55      0       60056   401     56      0               
                   29-        CDAMP3  60057   401     57      0       60058   401     58      0               
                   30-        CDAMP3  60059   401     59      0       60060   401     60      0               
                   31-        CDAMP3  60061   401     61      0       60062   401     62      0               
                   32-        CDAMP3  60063   401     63      0       60064   401     64      0               
                   33-        CDAMP3  60065   401     65      0       60066   401     66      0               
                   34-        CDAMP3  60067   401     67      0       60068   401     68      0               
                   35-        CDAMP3  60069   401     69      0       60070   401     70      0               
                   36-        CDAMP3  60071   401     71      0       60072   401     72      0               
                   37-        CDAMP3  60073   401     73      0       60074   401     74      0               
                   38-        CDAMP3  60075   401     75      0       60076   401     76      0               
                   39-        CDAMP3  60077   401     77      0       60078   401     78      0               
                   40-        CDAMP3  60079   401     79      0       60080   401     80      0               
                   41-        CDAMP3  60081   401     81      0       60082   401     82      0               
                   42-        CDAMP3  60083   401     83      0       60084   401     84      0               
                   43-        CDAMP3  60085   401     85      0       60086   401     86      0               
                   44-        CDAMP3  60087   401     87      0       60088   401     88      0               
                   45-        CDAMP3  60089   401     89      0       60090   401     90      0               
                   46-        CDAMP3  60091   401     91      0       60092   401     92      0               
                   47-        CDAMP3  60093   401     93      0       60094   401     94      0               
1     COMPLEX EIGENVALUES OF A 500 CELL STRING                              /    95 SUN SOLARIS NASTRAN    / MAY 17, 95 / PAGE     7
      NASTRAN DEMONSTRATION PROBLEM NO. D07-01-1A                                                                                   

                                                                                                                                    

                                                  S O R T E D   B U L K    D A T A    E C H O                                       
                     CARD                                                                                                           
                     COUNT        ---1--- +++2+++ ---3--- +++4+++ ---5--- +++6+++ ---7--- +++8+++ ---9--- +++10+++                  
                   48-        CDAMP3  60095   401     95      0       60096   401     96      0               
                   49-        CDAMP3  60097   401     97      0       60098   401     98      0               
                   50-        CDAMP3  60099   401     99      0       60100   401     100     0               
                   51-        CDAMP3  60101   401     101     0       60102   401     102     0               
                   52-        CDAMP3  60103   401     103     0       60104   401     104     0               
                   53-        CDAMP3  60105   401     105     0       60106   401     106     0               
                   54-        CDAMP3  60107   401     107     0       60108   401     108     0               
                   55-        CDAMP3  60109   401     109     0       60110   401     110     0               
                   56-        CDAMP3  60111   401     111     0       60112   401     112     0               
                   57-        CDAMP3  60113   401     113     0       60114   401     114     0               
                   58-        CDAMP3  60115   401     115     0       60116   401     116     0               
                   59-        CDAMP3  60117   401     117     0       60118   401     118     0               
                   60-        CDAMP3  60119   401     119     0       60120   401     120     0               
                   61-        CDAMP3  60121   401     121     0       60122   401     122     0               
                   62-        CDAMP3  60123   401     123     0       60124   401     124     0               
                   63-        CDAMP3  60125   401     125     0       60126   401     126     0               
                   64-        CDAMP3  60127   401     127     0       60128   401     128     0               
                   65-        CDAMP3  60129   401     129     0       60130   401     130     0               
                   66-        CDAMP3  60131   401     131     0       60132   401     132     0               
                   67-        CDAMP3  60133   401     133     0       60134   401     134     0               
                   68-        CDAMP3  60135   401     135     0       60136   401     136     0               
                   69-        CDAMP3  60137   401     137     0       60138   401     138     0               
                   70-        CDAMP3  60139   401     139     0       60140   401     140     0               
                   71-        CDAMP3  60141   401     141     0       60142   401     142     0               
                   72-        CDAMP3  60143   401     143     0       60144   401     144     0               
                   73-        CDAMP3  60145   401     145     0       60146   401     146     0               
                   74-        CDAMP3  60147   401     147     0       60148   401     148     0               
                   75-        CDAMP3  60149   401     149     0       60150   401     150     0               
                   76-        CDAMP3  60151   401     151     0       60152   401     152     0               
                   77-        CDAMP3  60153   401     153     0       60154   401     154     0               
                   78-        CDAMP3  60155   401     155     0       60156   401     156     0               
                   79-        CDAMP3  60157   401     157     0       60158   401     158     0               
                   80-        CDAMP3  60159   401     159     0       60160   401     160     0               
                   81-        CDAMP3  60161   401     161     0       60162   401     162     0               
                   82-        CDAMP3  60163   401     163     0       60164   401     164     0               
                   83-        CDAMP3  60165   401     165     0       60166   401     166     0               
                   84-        CDAMP3  60167   401     167     0       60168   401     168     0               
                   85-        CDAMP3  60169   401     169     0       60170   401     170     0               
                   86-        CDAMP3  60171   401     171     0       60172   401     172     0               
                   87-        CDAMP3  60173   401     173     0       60174   401     174     0               
                   88-        CDAMP3  60175   401     175     0       60176   401     176     0               
                   89-        CDAMP3  60177   401     177     0       60178   401     178     0               
                   90-        CDAMP3  60179   401     179     0       60180   401     180     0               
                   91-        CDAMP3  60181   401     181     0       60182   401     182     0               
                   92-        CDAMP3  60183   401     183     0       60184   401     184     0               
                   93-        CDAMP3  60185   401     185     0       60186   401     186     0               
                   94-        CDAMP3  60187   401     187     0       60188   401     188     0               
1     COMPLEX EIGENVALUES OF A 500 CELL STRING                              /    95 SUN SOLARIS NASTRAN    / MAY 17, 95 / PAGE     8
      NASTRAN DEMONSTRATION PROBLEM NO. D07-01-1A                                                                                   

                                                                                                                                    

                                                  S O R T E D   B U L K    D A T A    E C H O                                       
                     CARD                                                                                                           
                     COUNT        ---1--- +++2+++ ---3--- +++4+++ ---5--- +++6+++ ---7--- +++8+++ ---9--- +++10+++                  
                   95-        CDAMP3  60189   401     189     0       60190   401     190     0               
                   96-        CDAMP3  60191   401     191     0       60192   401     192     0               
                   97-        CDAMP3  60193   401     193     0       60194   401     194     0               
                   98-        CDAMP3  60195   401     195     0       60196   401     196     0               
                   99-        CDAMP3  60197   401     197     0       60198   401     198     0               
                  100-        CDAMP3  60199   401     199     0       60200   401     200     0               
                  101-        CDAMP3  60201   401     201     0       60202   401     202     0               
                  102-        CDAMP3  60203   401     203     0       60204   401     204     0               
                  103-        CDAMP3  60205   401     205     0       60206   401     206     0               
                  104-        CDAMP3  60207   401     207     0       60208   401     208     0               
                  105-        CDAMP3  60209   401     209     0       60210   401     210     0               
                  106-        CDAMP3  60211   401     211     0       60212   401     212     0               
                  107-        CDAMP3  60213   401     213     0       60214   401     214     0               
                  108-        CDAMP3  60215   401     215     0       60216   401     216     0               
                  109-        CDAMP3  60217   401     217     0       60218   401     218     0               
                  110-        CDAMP3  60219   401     219     0       60220   401     220     0               
                  111-        CDAMP3  60221   401     221     0       60222   401     222     0               
                  112-        CDAMP3  60223   401     223     0       60224   401     224     0               
                  113-        CDAMP3  60225   401     225     0       60226   401     226     0               
                  114-        CDAMP3  60227   401     227     0       60228   401     228     0               
                  115-        CDAMP3  60229   401     229     0       60230   401     230     0               
                  116-        CDAMP3  60231   401     231     0       60232   401     232     0               
                  117-        CDAMP3  60233   401     233     0       60234   401     234     0               
                  118-        CDAMP3  60235   401     235     0       60236   401     236     0               
                  119-        CDAMP3  60237   401     237     0       60238   401     238     0               
                  120-        CDAMP3  60239   401     239     0       60240   401     240     0               
                  121-        CDAMP3  60241   401     241     0       60242   401     242     0               
                  122-        CDAMP3  60243   401     243     0       60244   401     244     0               
                  123-        CDAMP3  60245   401     245     0       60246   401     246     0               
                  124-        CDAMP3  60247   401     247     0       60248   401     248     0               
                  125-        CDAMP3  60249   401     249     0       60250   401     250     0               
                  126-        CDAMP3  60251   401     251     0       60252   401     252     0               
                  127-        CDAMP3  60253   401     253     0       60254   401     254     0               
                  128-        CDAMP3  60255   401     255     0       60256   401     256     0               
                  129-        CDAMP3  60257   401     257     0       60258   401     258     0               
                  130-        CDAMP3  60259   401     259     0       60260   401     260     0               
                  131-        CDAMP3  60261   401     261     0       60262   401     262     0               
                  132-        CDAMP3  60263   401     263     0       60264   401     264     0               
                  133-        CDAMP3  60265   401     265     0       60266   401     266     0               
                  134-        CDAMP3  60267   401     267     0       60268   401     268     0               
                  135-        CDAMP3  60269   401     269     0       60270   401     270     0               
                  136-        CDAMP3  60271   401     271     0       60272   401     272     0               
                  137-        CDAMP3  60273   401     273     0       60274   401     274     0               
                  138-        CDAMP3  60275   401     275     0       60276   401     276     0               
                  139-        CDAMP3  60277   401     277     0       60278   401     278     0               
                  140-        CDAMP3  60279   401     279     0       60280   401     280     0               
                  141-        CDAMP3  60281   401     281     0       60282   401     282     0               
1     COMPLEX EIGENVALUES OF A 500 CELL STRING                              /    95 SUN SOLARIS NASTRAN    / MAY 17, 95 / PAGE     9
      NASTRAN DEMONSTRATION PROBLEM NO. D07-01-1A                                                                                   

                                                                                                                                    

                                                  S O R T E D   B U L K    D A T A    E C H O                                       
                     CARD                                                                                                           
                     COUNT        ---1--- +++2+++ ---3--- +++4+++ ---5--- +++6+++ ---7--- +++8+++ ---9--- +++10+++                  
                  142-        CDAMP3  60283   401     283     0       60284   401     284     0               
                  143-        CDAMP3  60285   401     285     0       60286   401     286     0               
                  144-        CDAMP3  60287   401     287     0       60288   401     288     0               
                  145-        CDAMP3  60289   401     289     0       60290   401     290     0               
                  146-        CDAMP3  60291   401     291     0       60292   401     292     0               
                  147-        CDAMP3  60293   401     293     0       60294   401     294     0               
                  148-        CDAMP3  60295   401     295     0       60296   401     296     0               
                  149-        CDAMP3  60297   401     297     0       60298   401     298     0               
                  150-        CDAMP3  60299   401     299     0       60300   401     300     0               
                  151-        CDAMP3  60301   401     301     0       60302   401     302     0               
                  152-        CDAMP3  60303   401     303     0       60304   401     304     0               
                  153-        CDAMP3  60305   401     305     0       60306   401     306     0               
                  154-        CDAMP3  60307   401     307     0       60308   401     308     0               
                  155-        CDAMP3  60309   401     309     0       60310   401     310     0               
                  156-        CDAMP3  60311   401     311     0       60312   401     312     0               
                  157-        CDAMP3  60313   401     313     0       60314   401     314     0               
                  158-        CDAMP3  60315   401     315     0       60316   401     316     0               
                  159-        CDAMP3  60317   401     317     0       60318   401     318     0               
                  160-        CDAMP3  60319   401     319     0       60320   401     320     0               
                  161-        CDAMP3  60321   401     321     0       60322   401     322     0               
                  162-        CDAMP3  60323   401     323     0       60324   401     324     0               
                  163-        CDAMP3  60325   401     325     0       60326   401     326     0               
                  164-        CDAMP3  60327   401     327     0       60328   401     328     0               
                  165-        CDAMP3  60329   401     329     0       60330   401     330     0               
                  166-        CDAMP3  60331   401     331     0       60332   401     332     0               
                  167-        CDAMP3  60333   401     333     0       60334   401     334     0               
                  168-        CDAMP3  60335   401     335     0       60336   401     336     0               
                  169-        CDAMP3  60337   401     337     0       60338   401     338     0               
                  170-        CDAMP3  60339   401     339     0       60340   401     340     0               
                  171-        CDAMP3  60341   401     341     0       60342   401     342     0               
                  172-        CDAMP3  60343   401     343     0       60344   401     344     0               
                  173-        CDAMP3  60345   401     345     0       60346   401     346     0               
                  174-        CDAMP3  60347   401     347     0       60348   401     348     0               
                  175-        CDAMP3  60349   401     349     0       60350   401     350     0               
                  176-        CDAMP3  60351   401     351     0       60352   401     352     0               
                  177-        CDAMP3  60353   401     353     0       60354   401     354     0               
                  178-        CDAMP3  60355   401     355     0       60356   401     356     0               
                  179-        CDAMP3  60357   401     357     0       60358   401     358     0               
                  180-        CDAMP3  60359   401     359     0       60360   401     360     0               
                  181-        CDAMP3  60361   401     361     0       60362   401     362     0               
                  182-        CDAMP3  60363   401     363     0       60364   401     364     0               
                  183-        CDAMP3  60365   401     365     0       60366   401     366     0               
                  184-        CDAMP3  60367   401     367     0       60368   401     368     0               
                  185-        CDAMP3  60369   401     369     0       60370   401     370     0               
                  186-        CDAMP3  60371   401     371     0       60372   401     372     0               
                  187-        CDAMP3  60373   401     373     0       60374   401     374     0               
                  188-        CDAMP3  60375   401     375     0       60376   401     376     0               
1     COMPLEX EIGENVALUES OF A 500 CELL STRING                              /    95 SUN SOLARIS NASTRAN    / MAY 17, 95 / PAGE    10
      NASTRAN DEMONSTRATION PROBLEM NO. D07-01-1A                                                                                   

                                                                                                                                    

                                                  S O R T E D   B U L K    D A T A    E C H O                                       
                     CARD                                                                                                           
                     COUNT        ---1--- +++2+++ ---3--- +++4+++ ---5--- +++6+++ ---7--- +++8+++ ---9--- +++10+++                  
                  189-        CDAMP3  60377   401     377     0       60378   401     378     0               
                  190-        CDAMP3  60379   401     379     0       60380   401     380     0               
                  191-        CDAMP3  60381   401     381     0       60382   401     382     0               
                  192-        CDAMP3  60383   401     383     0       60384   401     384     0               
                  193-        CDAMP3  60385   401     385     0       60386   401     386     0               
                  194-        CDAMP3  60387   401     387     0       60388   401     388     0               
                  195-        CDAMP3  60389   401     389     0       60390   401     390     0               
                  196-        CDAMP3  60391   401     391     0       60392   401     392     0               
                  197-        CDAMP3  60393   401     393     0       60394   401     394     0               
                  198-        CDAMP3  60395   401     395     0       60396   401     396     0               
                  199-        CDAMP3  60397   401     397     0       60398   401     398     0               
                  200-        CDAMP3  60399   401     399     0       60400   401     400     0               
                  201-        CDAMP3  60401   401     401     0       60402   401     402     0               
                  202-        CDAMP3  60403   401     403     0       60404   401     404     0               
                  203-        CDAMP3  60405   401     405     0       60406   401     406     0               
                  204-        CDAMP3  60407   401     407     0       60408   401     408     0               
                  205-        CDAMP3  60409   401     409     0       60410   401     410     0               
                  206-        CDAMP3  60411   401     411     0       60412   401     412     0               
                  207-        CDAMP3  60413   401     413     0       60414   401     414     0               
                  208-        CDAMP3  60415   401     415     0       60416   401     416     0               
                  209-        CDAMP3  60417   401     417     0       60418   401     418     0               
                  210-        CDAMP3  60419   401     419     0       60420   401     420     0               
                  211-        CDAMP3  60421   401     421     0       60422   401     422     0               
                  212-        CDAMP3  60423   401     423     0       60424   401     424     0               
                  213-        CDAMP3  60425   401     425     0       60426   401     426     0               
                  214-        CDAMP3  60427   401     427     0       60428   401     428     0               
                  215-        CDAMP3  60429   401     429     0       60430   401     430     0               
                  216-        CDAMP3  60431   401     431     0       60432   401     432     0               
                  217-        CDAMP3  60433   401     433     0       60434   401     434     0               
                  218-        CDAMP3  60435   401     435     0       60436   401     436     0               
                  219-        CDAMP3  60437   401     437     0       60438   401     438     0               
                  220-        CDAMP3  60439   401     439     0       60440   401     440     0               
                  221-        CDAMP3  60441   401     441     0       60442   401     442     0               
                  222-        CDAMP3  60443   401     443     0       60444   401     444     0               
                  223-        CDAMP3  60445   401     445     0       60446   401     446     0               
                  224-        CDAMP3  60447   401     447     0       60448   401     448     0               
                  225-        CDAMP3  60449   401     449     0       60450   401     450     0               
                  226-        CDAMP3  60451   401     451     0       60452   401     452     0               
                  227-        CDAMP3  60453   401     453     0       60454   401     454     0               
                  228-        CDAMP3  60455   401     455     0       60456   401     456     0               
                  229-        CDAMP3  60457   401     457     0       60458   401     458     0               
                  230-        CDAMP3  60459   401     459     0       60460   401     460     0               
                  231-        CDAMP3  60461   401     461     0       60462   401     462     0               
                  232-        CDAMP3  60463   401     463     0       60464   401     464     0               
                  233-        CDAMP3  60465   401     465     0       60466   401     466     0               
                  234-        CDAMP3  60467   401     467     0       60468   401     468     0               
                  235-        CDAMP3  60469   401     469     0       60470   401     470     0               
1     COMPLEX EIGENVALUES OF A 500 CELL STRING                              /    95 SUN SOLARIS NASTRAN    / MAY 17, 95 / PAGE    11
      NASTRAN DEMONSTRATION PROBLEM NO. D07-01-1A                                                                                   

                                                                                                                                    

                                                  S O R T E D   B U L K    D A T A    E C H O                                       
                     CARD                                                                                                           
                     COUNT        ---1--- +++2+++ ---3--- +++4+++ ---5--- +++6+++ ---7--- +++8+++ ---9--- +++10+++                  
                  236-        CDAMP3  60471   401     471     0       60472   401     472     0               
                  237-        CDAMP3  60473   401     473     0       60474   401     474     0               
                  238-        CDAMP3  60475   401     475     0       60476   401     476     0               
                  239-        CDAMP3  60477   401     477     0       60478   401     478     0               
                  240-        CDAMP3  60479   401     479     0       60480   401     480     0               
                  241-        CDAMP3  60481   401     481     0       60482   401     482     0               
                  242-        CDAMP3  60483   401     483     0       60484   401     484     0               
                  243-        CDAMP3  60485   401     485     0       60486   401     486     0               
                  244-        CDAMP3  60487   401     487     0       60488   401     488     0               
                  245-        CDAMP3  60489   401     489     0       60490   401     490     0               
                  246-        CDAMP3  60491   401     491     0       60492   401     492     0               
                  247-        CDAMP3  60493   401     493     0       60494   401     494     0               
                  248-        CDAMP3  60495   401     495     0       60496   401     496     0               
                  249-        CDAMP3  60497   401     497     0       60498   401     498     0               
                  250-        CDAMP3  60499   401     499     0       60500   401     500     0               
                  251-        CELAS3  1       101     0       2       2       101     2       3               
                  252-        CELAS3  3       101     3       4       4       101     4       5               
                  253-        CELAS3  5       101     5       6       6       101     6       7               
                  254-        CELAS3  7       101     7       8       8       101     8       9               
                  255-        CELAS3  9       101     9       10      10      101     10      11              
                  256-        CELAS3  11      101     11      12      12      101     12      13              
                  257-        CELAS3  13      101     13      14      14      101     14      15              
                  258-        CELAS3  15      101     15      16      16      101     16      17              
                  259-        CELAS3  17      101     17      18      18      101     18      19              
                  260-        CELAS3  19      101     19      20      20      101     20      21              
                  261-        CELAS3  21      101     21      22      22      101     22      23              
                  262-        CELAS3  23      101     23      24      24      101     24      25              
                  263-        CELAS3  25      101     25      26      26      101     26      27              
                  264-        CELAS3  27      101     27      28      28      101     28      29              
                  265-        CELAS3  29      101     29      30      30      101     30      31              
                  266-        CELAS3  31      101     31      32      32      101     32      33              
                  267-        CELAS3  33      101     33      34      34      101     34      35              
                  268-        CELAS3  35      101     35      36      36      101     36      37              
                  269-        CELAS3  37      101     37      38      38      101     38      39              
                  270-        CELAS3  39      101     39      40      40      101     40      41              
                  271-        CELAS3  41      101     41      42      42      101     42      43              
                  272-        CELAS3  43      101     43      44      44      101     44      45              
                  273-        CELAS3  45      101     45      46      46      101     46      47              
                  274-        CELAS3  47      101     47      48      48      101     48      49              
                  275-        CELAS3  49      101     49      50      50      101     50      51              
                  276-        CELAS3  51      101     51      52      52      101     52      53              
                  277-        CELAS3  53      101     53      54      54      101     54      55              
                  278-        CELAS3  55      101     55      56      56      101     56      57              
                  279-        CELAS3  57      101     57      58      58      101     58      59              
                  280-        CELAS3  59      101     59      60      60      101     60      61              
                  281-        CELAS3  61      101     61      62      62      101     62      63              
                  282-        CELAS3  63      101     63      64      64      101     64      65              
1     COMPLEX EIGENVALUES OF A 500 CELL STRING                              /    95 SUN SOLARIS NASTRAN    / MAY 17, 95 / PAGE    12
      NASTRAN DEMONSTRATION PROBLEM NO. D07-01-1A                                                                                   

                                                                                                                                    

                                                  S O R T E D   B U L K    D A T A    E C H O                                       
                     CARD                                                                                                           
                     COUNT        ---1--- +++2+++ ---3--- +++4+++ ---5--- +++6+++ ---7--- +++8+++ ---9--- +++10+++                  
                  283-        CELAS3  65      101     65      66      66      101     66      67              
                  284-        CELAS3  67      101     67      68      68      101     68      69              
                  285-        CELAS3  69      101     69      70      70      101     70      71              
                  286-        CELAS3  71      101     71      72      72      101     72      73              
                  287-        CELAS3  73      101     73      74      74      101     74      75              
                  288-        CELAS3  75      101     75      76      76      101     76      77              
                  289-        CELAS3  77      101     77      78      78      101     78      79              
                  290-        CELAS3  79      101     79      80      80      101     80      81              
                  291-        CELAS3  81      101     81      82      82      101     82      83              
                  292-        CELAS3  83      101     83      84      84      101     84      85              
                  293-        CELAS3  85      101     85      86      86      101     86      87              
                  294-        CELAS3  87      101     87      88      88      101     88      89              
                  295-        CELAS3  89      101     89      90      90      101     90      91              
                  296-        CELAS3  91      101     91      92      92      101     92      93              
                  297-        CELAS3  93      101     93      94      94      101     94      95              
                  298-        CELAS3  95      101     95      96      96      101     96      97              
                  299-        CELAS3  97      101     97      98      98      101     98      99              
                  300-        CELAS3  99      101     99      100     100     101     100     101             
                  301-        CELAS3  101     101     101     102     102     101     102     103             
                  302-        CELAS3  103     101     103     104     104     101     104     105             
                  303-        CELAS3  105     101     105     106     106     101     106     107             
                  304-        CELAS3  107     101     107     108     108     101     108     109             
                  305-        CELAS3  109     101     109     110     110     101     110     111             
                  306-        CELAS3  111     101     111     112     112     101     112     113             
                  307-        CELAS3  113     101     113     114     114     101     114     115             
                  308-        CELAS3  115     101     115     116     116     101     116     117             
                  309-        CELAS3  117     101     117     118     118     101     118     119             
                  310-        CELAS3  119     101     119     120     120     101     120     121             
                  311-        CELAS3  121     101     121     122     122     101     122     123             
                  312-        CELAS3  123     101     123     124     124     101     124     125             
                  313-        CELAS3  125     101     125     126     126     101     126     127             
                  314-        CELAS3  127     101     127     128     128     101     128     129             
                  315-        CELAS3  129     101     129     130     130     101     130     131             
                  316-        CELAS3  131     101     131     132     132     101     132     133             
                  317-        CELAS3  133     101     133     134     134     101     134     135             
                  318-        CELAS3  135     101     135     136     136     101     136     137             
                  319-        CELAS3  137     101     137     138     138     101     138     139             
                  320-        CELAS3  139     101     139     140     140     101     140     141             
                  321-        CELAS3  141     101     141     142     142     101     142     143             
                  322-        CELAS3  143     101     143     144     144     101     144     145             
                  323-        CELAS3  145     101     145     146     146     101     146     147             
                  324-        CELAS3  147     101     147     148     148     101     148     149             
                  325-        CELAS3  149     101     149     150     150     101     150     151             
                  326-        CELAS3  151     101     151     152     152     101     152     153             
                  327-        CELAS3  153     101     153     154     154     101     154     155             
                  328-        CELAS3  155     101     155     156     156     101     156     157             
                  329-        CELAS3  157     101     157     158     158     101     158     159             
1     COMPLEX EIGENVALUES OF A 500 CELL STRING                              /    95 SUN SOLARIS NASTRAN    / MAY 17, 95 / PAGE    13
      NASTRAN DEMONSTRATION PROBLEM NO. D07-01-1A                                                                                   

                                                                                                                                    

                                                  S O R T E D   B U L K    D A T A    E C H O                                       
                     CARD                                                                                                           
                     COUNT        ---1--- +++2+++ ---3--- +++4+++ ---5--- +++6+++ ---7--- +++8+++ ---9--- +++10+++                  
                  330-        CELAS3  159     101     159     160     160     101     160     161             
                  331-        CELAS3  161     101     161     162     162     101     162     163             
                  332-        CELAS3  163     101     163     164     164     101     164     165             
                  333-        CELAS3  165     101     165     166     166     101     166     167             
                  334-        CELAS3  167     101     167     168     168     101     168     169             
                  335-        CELAS3  169     101     169     170     170     101     170     171             
                  336-        CELAS3  171     101     171     172     172     101     172     173             
                  337-        CELAS3  173     101     173     174     174     101     174     175             
                  338-        CELAS3  175     101     175     176     176     101     176     177             
                  339-        CELAS3  177     101     177     178     178     101     178     179             
                  340-        CELAS3  179     101     179     180     180     101     180     181             
                  341-        CELAS3  181     101     181     182     182     101     182     183             
                  342-        CELAS3  183     101     183     184     184     101     184     185             
                  343-        CELAS3  185     101     185     186     186     101     186     187             
                  344-        CELAS3  187     101     187     188     188     101     188     189             
                  345-        CELAS3  189     101     189     190     190     101     190     191             
                  346-        CELAS3  191     101     191     192     192     101     192     193             
                  347-        CELAS3  193     101     193     194     194     101     194     195             
                  348-        CELAS3  195     101     195     196     196     101     196     197             
                  349-        CELAS3  197     101     197     198     198     101     198     199             
                  350-        CELAS3  199     101     199     200     200     101     200     201             
                  351-        CELAS3  201     101     201     202     202     101     202     203             
                  352-        CELAS3  203     101     203     204     204     101     204     205             
                  353-        CELAS3  205     101     205     206     206     101     206     207             
                  354-        CELAS3  207     101     207     208     208     101     208     209             
                  355-        CELAS3  209     101     209     210     210     101     210     211             
                  356-        CELAS3  211     101     211     212     212     101     212     213             
                  357-        CELAS3  213     101     213     214     214     101     214     215             
                  358-        CELAS3  215     101     215     216     216     101     216     217             
                  359-        CELAS3  217     101     217     218     218     101     218     219             
                  360-        CELAS3  219     101     219     220     220     101     220     221             
                  361-        CELAS3  221     101     221     222     222     101     222     223             
                  362-        CELAS3  223     101     223     224     224     101     224     225             
                  363-        CELAS3  225     101     225     226     226     101     226     227             
                  364-        CELAS3  227     101     227     228     228     101     228     229             
                  365-        CELAS3  229     101     229     230     230     101     230     231             
                  366-        CELAS3  231     101     231     232     232     101     232     233             
                  367-        CELAS3  233     101     233     234     234     101     234     235             
                  368-        CELAS3  235     101     235     236     236     101     236     237             
                  369-        CELAS3  237     101     237     238     238     101     238     239             
                  370-        CELAS3  239     101     239     240     240     101     240     241             
                  371-        CELAS3  241     101     241     242     242     101     242     243             
                  372-        CELAS3  243     101     243     244     244     101     244     245             
                  373-        CELAS3  245     101     245     246     246     101     246     247             
                  374-        CELAS3  247     101     247     248     248     101     248     249             
                  375-        CELAS3  249     101     249     250     250     101     250     251             
                  376-        CELAS3  251     101     251     252     252     101     252     253             
1     COMPLEX EIGENVALUES OF A 500 CELL STRING                              /    95 SUN SOLARIS NASTRAN    / MAY 17, 95 / PAGE    14
      NASTRAN DEMONSTRATION PROBLEM NO. D07-01-1A                                                                                   

                                                                                                                                    

                                                  S O R T E D   B U L K    D A T A    E C H O                                       
                     CARD                                                                                                           
                     COUNT        ---1--- +++2+++ ---3--- +++4+++ ---5--- +++6+++ ---7--- +++8+++ ---9--- +++10+++                  
                  377-        CELAS3  253     101     253     254     254     101     254     255             
                  378-        CELAS3  255     101     255     256     256     101     256     257             
                  379-        CELAS3  257     101     257     258     258     101     258     259             
                  380-        CELAS3  259     101     259     260     260     101     260     261             
                  381-        CELAS3  261     101     261     262     262     101     262     263             
                  382-        CELAS3  263     101     263     264     264     101     264     265             
                  383-        CELAS3  265     101     265     266     266     101     266     267             
                  384-        CELAS3  267     101     267     268     268     101     268     269             
                  385-        CELAS3  269     101     269     270     270     101     270     271             
                  386-        CELAS3  271     101     271     272     272     101     272     273             
                  387-        CELAS3  273     101     273     274     274     101     274     275             
                  388-        CELAS3  275     101     275     276     276     101     276     277             
                  389-        CELAS3  277     101     277     278     278     101     278     279             
                  390-        CELAS3  279     101     279     280     280     101     280     281             
                  391-        CELAS3  281     101     281     282     282     101     282     283             
                  392-        CELAS3  283     101     283     284     284     101     284     285             
                  393-        CELAS3  285     101     285     286     286     101     286     287             
                  394-        CELAS3  287     101     287     288     288     101     288     289             
                  395-        CELAS3  289     101     289     290     290     101     290     291             
                  396-        CELAS3  291     101     291     292     292     101     292     293             
                  397-        CELAS3  293     101     293     294     294     101     294     295             
                  398-        CELAS3  295     101     295     296     296     101     296     297             
                  399-        CELAS3  297     101     297     298     298     101     298     299             
                  400-        CELAS3  299     101     299     300     300     101     300     301             
                  401-        CELAS3  301     101     301     302     302     101     302     303             
                  402-        CELAS3  303     101     303     304     304     101     304     305             
                  403-        CELAS3  305     101     305     306     306     101     306     307             
                  404-        CELAS3  307     101     307     308     308     101     308     309             
                  405-        CELAS3  309     101     309     310     310     101     310     311             
                  406-        CELAS3  311     101     311     312     312     101     312     313             
                  407-        CELAS3  313     101     313     314     314     101     314     315             
                  408-        CELAS3  315     101     315     316     316     101     316     317             
                  409-        CELAS3  317     101     317     318     318     101     318     319             
                  410-        CELAS3  319     101     319     320     320     101     320     321             
                  411-        CELAS3  321     101     321     322     322     101     322     323             
                  412-        CELAS3  323     101     323     324     324     101     324     325             
                  413-        CELAS3  325     101     325     326     326     101     326     327             
                  414-        CELAS3  327     101     327     328     328     101     328     329             
                  415-        CELAS3  329     101     329     330     330     101     330     331             
                  416-        CELAS3  331     101     331     332     332     101     332     333             
                  417-        CELAS3  333     101     333     334     334     101     334     335             
                  418-        CELAS3  335     101     335     336     336     101     336     337             
                  419-        CELAS3  337     101     337     338     338     101     338     339             
                  420-        CELAS3  339     101     339     340     340     101     340     341             
                  421-        CELAS3  341     101     341     342     342     101     342     343             
                  422-        CELAS3  343     101     343     344     344     101     344     345             
                  423-        CELAS3  345     101     345     346     346     101     346     347             
1     COMPLEX EIGENVALUES OF A 500 CELL STRING                              /    95 SUN SOLARIS NASTRAN    / MAY 17, 95 / PAGE    15
      NASTRAN DEMONSTRATION PROBLEM NO. D07-01-1A                                                                                   

                                                                                                                                    

                                                  S O R T E D   B U L K    D A T A    E C H O                                       
                     CARD                                                                                                           
                     COUNT        ---1--- +++2+++ ---3--- +++4+++ ---5--- +++6+++ ---7--- +++8+++ ---9--- +++10+++                  
                  424-        CELAS3  347     101     347     348     348     101     348     349             
                  425-        CELAS3  349     101     349     350     350     101     350     351             
                  426-        CELAS3  351     101     351     352     352     101     352     353             
                  427-        CELAS3  353     101     353     354     354     101     354     355             
                  428-        CELAS3  355     101     355     356     356     101     356     357             
                  429-        CELAS3  357     101     357     358     358     101     358     359             
                  430-        CELAS3  359     101     359     360     360     101     360     361             
                  431-        CELAS3  361     101     361     362     362     101     362     363             
                  432-        CELAS3  363     101     363     364     364     101     364     365             
                  433-        CELAS3  365     101     365     366     366     101     366     367             
                  434-        CELAS3  367     101     367     368     368     101     368     369             
                  435-        CELAS3  369     101     369     370     370     101     370     371             
                  436-        CELAS3  371     101     371     372     372     101     372     373             
                  437-        CELAS3  373     101     373     374     374     101     374     375             
                  438-        CELAS3  375     101     375     376     376     101     376     377             
                  439-        CELAS3  377     101     377     378     378     101     378     379             
                  440-        CELAS3  379     101     379     380     380     101     380     381             
                  441-        CELAS3  381     101     381     382     382     101     382     383             
                  442-        CELAS3  383     101     383     384     384     101     384     385             
                  443-        CELAS3  385     101     385     386     386     101     386     387             
                  444-        CELAS3  387     101     387     388     388     101     388     389             
                  445-        CELAS3  389     101     389     390     390     101     390     391             
                  446-        CELAS3  391     101     391     392     392     101     392     393             
                  447-        CELAS3  393     101     393     394     394     101     394     395             
                  448-        CELAS3  395     101     395     396     396     101     396     397             
                  449-        CELAS3  397     101     397     398     398     101     398     399             
                  450-        CELAS3  399     101     399     400     400     101     400     401             
                  451-        CELAS3  401     101     401     402     402     101     402     403             
                  452-        CELAS3  403     101     403     404     404     101     404     405             
                  453-        CELAS3  405     101     405     406     406     101     406     407             
                  454-        CELAS3  407     101     407     408     408     101     408     409             
                  455-        CELAS3  409     101     409     410     410     101     410     411             
                  456-        CELAS3  411     101     411     412     412     101     412     413             
                  457-        CELAS3  413     101     413     414     414     101     414     415             
                  458-        CELAS3  415     101     415     416     416     101     416     417             
                  459-        CELAS3  417     101     417     418     418     101     418     419             
                  460-        CELAS3  419     101     419     420     420     101     420     421             
                  461-        CELAS3  421     101     421     422     422     101     422     423             
                  462-        CELAS3  423     101     423     424     424     101     424     425             
                  463-        CELAS3  425     101     425     426     426     101     426     427             
                  464-        CELAS3  427     101     427     428     428     101     428     429             
                  465-        CELAS3  429     101     429     430     430     101     430     431             
                  466-        CELAS3  431     101     431     432     432     101     432     433             
                  467-        CELAS3  433     101     433     434     434     101     434     435             
                  468-        CELAS3  435     101     435     436     436     101     436     437             
                  469-        CELAS3  437     101     437     438     438     101     438     439             
                  470-        CELAS3  439     101     439     440     440     101     440     441             
1     COMPLEX EIGENVALUES OF A 500 CELL STRING                              /    95 SUN SOLARIS NASTRAN    / MAY 17, 95 / PAGE    16
      NASTRAN DEMONSTRATION PROBLEM NO. D07-01-1A                                                                                   

                                                                                                                                    

                                                  S O R T E D   B U L K    D A T A    E C H O                                       
                     CARD                                                                                                           
                     COUNT        ---1--- +++2+++ ---3--- +++4+++ ---5--- +++6+++ ---7--- +++8+++ ---9--- +++10+++                  
                  471-        CELAS3  441     101     441     442     442     101     442     443             
                  472-        CELAS3  443     101     443     444     444     101     444     445             
                  473-        CELAS3  445     101     445     446     446     101     446     447             
                  474-        CELAS3  447     101     447     448     448     101     448     449             
                  475-        CELAS3  449     101     449     450     450     101     450     451             
                  476-        CELAS3  451     101     451     452     452     101     452     453             
                  477-        CELAS3  453     101     453     454     454     101     454     455             
                  478-        CELAS3  455     101     455     456     456     101     456     457             
                  479-        CELAS3  457     101     457     458     458     101     458     459             
                  480-        CELAS3  459     101     459     460     460     101     460     461             
                  481-        CELAS3  461     101     461     462     462     101     462     463             
                  482-        CELAS3  463     101     463     464     464     101     464     465             
                  483-        CELAS3  465     101     465     466     466     101     466     467             
                  484-        CELAS3  467     101     467     468     468     101     468     469             
                  485-        CELAS3  469     101     469     470     470     101     470     471             
                  486-        CELAS3  471     101     471     472     472     101     472     473             
                  487-        CELAS3  473     101     473     474     474     101     474     475             
                  488-        CELAS3  475     101     475     476     476     101     476     477             
                  489-        CELAS3  477     101     477     478     478     101     478     479             
                  490-        CELAS3  479     101     479     480     480     101     480     481             
                  491-        CELAS3  481     101     481     482     482     101     482     483             
                  492-        CELAS3  483     101     483     484     484     101     484     485             
                  493-        CELAS3  485     101     485     486     486     101     486     487             
                  494-        CELAS3  487     101     487     488     488     101     488     489             
                  495-        CELAS3  489     101     489     490     490     101     490     491             
                  496-        CELAS3  491     101     491     492     492     101     492     493             
                  497-        CELAS3  493     101     493     494     494     101     494     495             
                  498-        CELAS3  495     101     495     496     496     101     496     497             
                  499-        CELAS3  497     101     497     498     498     101     498     499             
                  500-        CELAS3  499     101     499     500     500     101     500     0               
                  501-        CMASS3  40002   301     2       0                                               
                  502-        CMASS3  40003   301     3       0       40004   301     4       0               
                  503-        CMASS3  40005   301     5       0       40006   301     6       0               
                  504-        CMASS3  40007   301     7       0       40008   301     8       0               
                  505-        CMASS3  40009   301     9       0       40010   301     10      0               
                  506-        CMASS3  40011   301     11      0       40012   301     12      0               
                  507-        CMASS3  40013   301     13      0       40014   301     14      0               
                  508-        CMASS3  40015   301     15      0       40016   301     16      0               
                  509-        CMASS3  40017   301     17      0       40018   301     18      0               
                  510-        CMASS3  40019   301     19      0       40020   301     20      0               
                  511-        CMASS3  40021   301     21      0       40022   301     22      0               
                  512-        CMASS3  40023   301     23      0       40024   301     24      0               
                  513-        CMASS3  40025   301     25      0       40026   301     26      0               
                  514-        CMASS3  40027   301     27      0       40028   301     28      0               
                  515-        CMASS3  40029   301     29      0       40030   301     30      0               
                  516-        CMASS3  40031   301     31      0       40032   301     32      0               
                  517-        CMASS3  40033   301     33      0       40034   301     34      0               
1     COMPLEX EIGENVALUES OF A 500 CELL STRING                              /    95 SUN SOLARIS NASTRAN    / MAY 17, 95 / PAGE    17
      NASTRAN DEMONSTRATION PROBLEM NO. D07-01-1A                                                                                   

                                                                                                                                    

                                                  S O R T E D   B U L K    D A T A    E C H O                                       
                     CARD                                                                                                           
                     COUNT        ---1--- +++2+++ ---3--- +++4+++ ---5--- +++6+++ ---7--- +++8+++ ---9--- +++10+++                  
                  518-        CMASS3  40035   301     35      0       40036   301     36      0               
                  519-        CMASS3  40037   301     37      0       40038   301     38      0               
                  520-        CMASS3  40039   301     39      0       40040   301     40      0               
                  521-        CMASS3  40041   301     41      0       40042   301     42      0               
                  522-        CMASS3  40043   301     43      0       40044   301     44      0               
                  523-        CMASS3  40045   301     45      0       40046   301     46      0               
                  524-        CMASS3  40047   301     47      0       40048   301     48      0               
                  525-        CMASS3  40049   301     49      0       40050   301     50      0               
                  526-        CMASS3  40051   301     51      0       40052   301     52      0               
                  527-        CMASS3  40053   301     53      0       40054   301     54      0               
                  528-        CMASS3  40055   301     55      0       40056   301     56      0               
                  529-        CMASS3  40057   301     57      0       40058   301     58      0               
                  530-        CMASS3  40059   301     59      0       40060   301     60      0               
                  531-        CMASS3  40061   301     61      0       40062   301     62      0               
                  532-        CMASS3  40063   301     63      0       40064   301     64      0               
                  533-        CMASS3  40065   301     65      0       40066   301     66      0               
                  534-        CMASS3  40067   301     67      0       40068   301     68      0               
                  535-        CMASS3  40069   301     69      0       40070   301     70      0               
                  536-        CMASS3  40071   301     71      0       40072   301     72      0               
                  537-        CMASS3  40073   301     73      0       40074   301     74      0               
                  538-        CMASS3  40075   301     75      0       40076   301     76      0               
                  539-        CMASS3  40077   301     77      0       40078   301     78      0               
                  540-        CMASS3  40079   301     79      0       40080   301     80      0               
                  541-        CMASS3  40081   301     81      0       40082   301     82      0               
                  542-        CMASS3  40083   301     83      0       40084   301     84      0               
                  543-        CMASS3  40085   301     85      0       40086   301     86      0               
                  544-        CMASS3  40087   301     87      0       40088   301     88      0               
                  545-        CMASS3  40089   301     89      0       40090   301     90      0               
                  546-        CMASS3  40091   301     91      0       40092   301     92      0               
                  547-        CMASS3  40093   301     93      0       40094   301     94      0               
                  548-        CMASS3  40095   301     95      0       40096   301     96      0               
                  549-        CMASS3  40097   301     97      0       40098   301     98      0               
                  550-        CMASS3  40099   301     99      0       40100   301     100     0               
                  551-        CMASS3  40101   301     101     0       40102   301     102     0               
                  552-        CMASS3  40103   301     103     0       40104   301     104     0               
                  553-        CMASS3  40105   301     105     0       40106   301     106     0               
                  554-        CMASS3  40107   301     107     0       40108   301     108     0               
                  555-        CMASS3  40109   301     109     0       40110   301     110     0               
                  556-        CMASS3  40111   301     111     0       40112   301     112     0               
                  557-        CMASS3  40113   301     113     0       40114   301     114     0               
                  558-        CMASS3  40115   301     115     0       40116   301     116     0               
                  559-        CMASS3  40117   301     117     0       40118   301     118     0               
                  560-        CMASS3  40119   301     119     0       40120   301     120     0               
                  561-        CMASS3  40121   301     121     0       40122   301     122     0               
                  562-        CMASS3  40123   301     123     0       40124   301     124     0               
                  563-        CMASS3  40125   301     125     0       40126   301     126     0               
                  564-        CMASS3  40127   301     127     0       40128   301     128     0               
1     COMPLEX EIGENVALUES OF A 500 CELL STRING                              /    95 SUN SOLARIS NASTRAN    / MAY 17, 95 / PAGE    18
      NASTRAN DEMONSTRATION PROBLEM NO. D07-01-1A                                                                                   

                                                                                                                                    

                                                  S O R T E D   B U L K    D A T A    E C H O                                       
                     CARD                                                                                                           
                     COUNT        ---1--- +++2+++ ---3--- +++4+++ ---5--- +++6+++ ---7--- +++8+++ ---9--- +++10+++                  
                  565-        CMASS3  40129   301     129     0       40130   301     130     0               
                  566-        CMASS3  40131   301     131     0       40132   301     132     0               
                  567-        CMASS3  40133   301     133     0       40134   301     134     0               
                  568-        CMASS3  40135   301     135     0       40136   301     136     0               
                  569-        CMASS3  40137   301     137     0       40138   301     138     0               
                  570-        CMASS3  40139   301     139     0       40140   301     140     0               
                  571-        CMASS3  40141   301     141     0       40142   301     142     0               
[...]
                  719-        CMASS3  40437   301     437     0       40438   301     438     0               
                  720-        CMASS3  40439   301     439     0       40440   301     440     0               
                  721-        CMASS3  40441   301     441     0       40442   301     442     0               
                  722-        CMASS3  40443   301     443     0       40444   301     444     0               
                  723-        CMASS3  40445   301     445     0       40446   301     446     0               
                  724-        CMASS3  40447   301     447     0       40448   301     448     0               
                  725-        CMASS3  40449   301     449     0       40450   301     450     0               
                  726-        CMASS3  40451   301     451     0       40452   301     452     0               
                  727-        CMASS3  40453   301     453     0       40454   301     454     0               
                  728-        CMASS3  40455   301     455     0       40456   301     456     0               
                  729-        CMASS3  40457   301     457     0       40458   301     458     0               
                  730-        CMASS3  40459   301     459     0       40460   301     460     0               
                  731-        CMASS3  40461   301     461     0       40462   301     462     0               
                  732-        CMASS3  40463   301     463     0       40464   301     464     0               
                  733-        CMASS3  40465   301     465     0       40466   301     466     0               
                  734-        CMASS3  40467   301     467     0       40468   301     468     0               
                  735-        CMASS3  40469   301     469     0       40470   301     470     0               
                  736-        CMASS3  40471   301     471     0       40472   301     472     0               
                  737-        CMASS3  40473   301     473     0       40474   301     474     0               
                  738-        CMASS3  40475   301     475     0       40476   301     476     0               
                  739-        CMASS3  40477   301     477     0       40478   301     478     0               
                  740-        CMASS3  40479   301     479     0       40480   301     480     0               
                  741-        CMASS3  40481   301     481     0       40482   301     482     0               
                  742-        CMASS3  40483   301     483     0       40484   301     484     0               
                  743-        CMASS3  40485   301     485     0       40486   301     486     0               
                  744-        CMASS3  40487   301     487     0       40488   301     488     0               
                  745-        CMASS3  40489   301     489     0       40490   301     490     0               
                  746-        CMASS3  40491   301     491     0       40492   301     492     0               
                  747-        CMASS3  40493   301     493     0       40494   301     494     0               
                  748-        CMASS3  40495   301     495     0       40496   301     496     0               
                  749-        CMASS3  40497   301     497     0       40498   301     498     0               
                  750-        CMASS3  40499   301     499     0       40500   301     500     0               
                  751-        EIGC    1       FEER    MAX                                             +CFEER  
                  752-        +CFEER  -1.0    12.0                                                            
1     COMPLEX EIGENVALUES OF A 500 CELL STRING                              /    95 SUN SOLARIS NASTRAN    / MAY 17, 95 / PAGE    22
      NASTRAN DEMONSTRATION PROBLEM NO. D07-01-1A                                                                                   

                                                                                                                                    

                                                  S O R T E D   B U L K    D A T A    E C H O                                       
                     CARD                                                                                                           
                     COUNT        ---1--- +++2+++ ---3--- +++4+++ ---5--- +++6+++ ---7--- +++8+++ ---9--- +++10+++                  
                  753-        EIGC    7       DET     MAX                     1.0-5                   +EIGC7  
                  754-        +EIGC7  -.5     5.0     -.9     16.0    10.0    2       2                       
                  755-        PARAM   G       .05                                                             
                  756-        PDAMP   401     6.283185                                                        
                  757-        PELAS   101     1.0+07  .05     10.0                                            
                  758-        PMASS   301     10.0                                                            
                              ENDDATA
0          **NO ERRORS FOUND - EXECUTE NASTRAN PROGRAM**
0*** USER INFORMATION MESSAGE 238, TURN DIAG 38 ON FOR ADDITIONAL ELEMENT PROCESSING INFORMATION

1     COMPLEX EIGENVALUES OF A 500 CELL STRING                              /    95 SUN SOLARIS NASTRAN    / MAY 17, 95 / PAGE    23
      NASTRAN DEMONSTRATION PROBLEM NO. D07-01-1A                                                                                   

                                                                                                                                    




0*** USER INFORMATION MESSAGE 3113,
     EMG MODULE PROCESSING DOUBLE PRECISION DAMP3    ELEMENTS (ELEMENT TYPE  22) STARTING WITH ID    60002
0*** USER INFORMATION MESSAGE 3113,
     EMG MODULE PROCESSING DOUBLE PRECISION ELAS3    ELEMENTS (ELEMENT TYPE  13) STARTING WITH ID        1
0*** USER INFORMATION MESSAGE 3113,
     EMG MODULE PROCESSING DOUBLE PRECISION MASS3    ELEMENTS (ELEMENT TYPE  27) STARTING WITH ID    40002
0*** USER WARNING MESSAGE 3150

     DESIRED NUMBER OF EIGENVALUES       0   INVALID. SET = 1.


0*** USER INFORMATION MESSAGE 3028      B =    2     BBAR =    2
                                        C =    0     CBAR =    0
                                        R =    3
0*** USER INFORMATION MESSAGE 3027, UNSYMMETRIC COMPLEX  DECOMPOSITION OF DATA BLOCK SCRATCH1 (N =   499)
     TIME ESTIMATE =        0 SECONDS
0*** USER INFORMATION MESSAGE 3165

         3 SOLUTIONS HAVE BEEN ACCEPTED AND   9 SOLUTIONS HAVE BEEN REJECTED.


0*** USER INFORMATION MESSAGE 3166

     2 MORE ACCURATE EIGENSOLUTIONS THAN THE    1 REQUESTED HAVE BEEN FOUND FOR NEIGHBORHOOD  1 OF  1

     CENTERED AT  -1.00000000D+00  1.20000000D+01. USE DIAG 12 TO DETERMINE ERROR ESTIMATES.


0*** USER INFORMATION MESSAGE 3160

     MINIMUM OPEN CORE NOT USED BY FEER  1956994 WORDS (     7827K BYTES).


1     COMPLEX EIGENVALUES OF A 500 CELL STRING                              /    95 SUN SOLARIS NASTRAN    / MAY 17, 95 / PAGE    24
      NASTRAN DEMONSTRATION PROBLEM NO. D07-01-1A                                                                                   
0                                                                                                                                   
 
 
                       C O M P L E X   E I G E N V A L U E   A N A L Y S I S   S U M M A R Y     (FEER METHOD)
0
0
0                                   NUMBER OF EIGENVALUES EXTRACTED  . . . . . . . . .        3
0                                   NUMBER OF STARTING POINTS USED . . . . . . . . . .        1
0                                   NUMBER OF STARTING POINT OR SHIFT POINT MOVES  . .        0
0                                   TOTAL NUMBER OF TRIANGULAR DECOMPOSITIONS  . . . .        1
0                                   TOTAL NUMBER OF VECTOR ITERATIONS  . . . . . . . .       11
0
0                                   REASON FOR TERMINATION . . . . . . . . . . . . . .        0*

0                                       (* NORMAL TERMINATION              
                                         SEE NASTRAN U.M. VOL II, SECTION 2.7.3)
1     COMPLEX EIGENVALUES OF A 500 CELL STRING                              /    95 SUN SOLARIS NASTRAN    / MAY 17, 95 / PAGE    25
      NASTRAN DEMONSTRATION PROBLEM NO. D07-01-1A                                                                                   
0                                                                                                                                   
 
                                        C O M P L E X   E I G E N V A L U E   S U M M A R Y
0                ROOT     EXTRACTION                  EIGENVALUE                     FREQUENCY              DAMPING
                  NO.        ORDER             (REAL)           (IMAG)                (CYCLES)            COEFFICIENT
                      1           2         -6.283178E-01     6.283177E+00          9.999987E-01          2.000000E-01              
                      2           1         -9.418869E-01     1.257803E+01          2.001856E+00          1.497670E-01              
                      3           3         -1.255580E+00     1.887015E+01          3.003278E+00          1.330758E-01              
1     COMPLEX EIGENVALUES OF A 500 CELL STRING                              /    95 SUN SOLARIS NASTRAN    / MAY 17, 95 / PAGE    26
      NASTRAN DEMONSTRATION PROBLEM NO. D07-01-1A                                                                                   

                                                                                                                                    




0*** SYSTEM WARNING MESSAGE 3022
+                                 (SEE PROG. MANUAL SEC. 4.9.7, OR USERS' MANUAL P. 6.5-3)
     DATA BLOCK QPC      MAY BE REQUIRED AS INPUT AND IS NOT OUTPUT BY A PREVIOUS MODULE IN THE CURRENT DMAP ROUTE.
1     COMPLEX EIGENVALUES OF A 500 CELL STRING                              /    95 SUN SOLARIS NASTRAN    / MAY 17, 95 / PAGE    27
      NASTRAN DEMONSTRATION PROBLEM NO. D07-01-1A                                                                                   
0                                                                                                                                   
      COMPLEX EIGENVALUE = -6.283178E-01,  6.283177E+00    (CYCLIC FREQUENCY =  9.999987E-01HZ)
                                       C O M P L E X   E I G E N V E C T O R   NO.          1
                                                          (REAL/IMAGINARY)
 
      POINT ID.   TYPE          T1             T2             T3             R1             R2             R3
0           51      S      3.090176E-01                                                                                             
                          -3.698150E-07                                                                                             
0          101      S      5.877853E-01                                                                                             
                           8.813436E-08                                                                                             
0          151      S      8.090159E-01                                                                                             
                           1.944262E-07                                                                                             
0          201      S      9.510561E-01                                                                                             
                           4.378122E-08                                                                                             
0          251      S      1.000000E+00                                                                                             
                           0.0                                                                                                      
0          301      S      9.510566E-01                                                                                             
                          -2.280782E-07                                                                                             
0          351      S      8.090177E-01                                                                                             
                          -4.654652E-07                                                                                             
0          401      S      5.877855E-01                                                                                             
                          -1.366458E-07                                                                                             
0          451      S      3.090166E-01                                                                                             
                           2.995830E-07                                                                                             
1     COMPLEX EIGENVALUES OF A 500 CELL STRING                              /    95 SUN SOLARIS NASTRAN    / MAY 17, 95 / PAGE    28
      NASTRAN DEMONSTRATION PROBLEM NO. D07-01-1A                                                                                   
0                                                                                                                                   
      COMPLEX EIGENVALUE = -9.418869E-01,  1.257803E+01    (CYCLIC FREQUENCY =  2.001856E+00HZ)
                                       C O M P L E X   E I G E N V E C T O R   NO.          2
                                                          (REAL/IMAGINARY)
 
      POINT ID.   TYPE          T1             T2             T3             R1             R2             R3
0           51      S      5.877852E-01                                                                                             
                           4.561104E-08                                                                                             
0          101      S      9.510566E-01                                                                                             
                           6.643128E-08                                                                                             
0          151      S      9.510565E-01                                                                                             
                           4.098018E-08                                                                                             
0          201      S      5.877852E-01                                                                                             
                          -1.095674E-08                                                                                             
0          251      S     -5.732428E-10                                                                                             
                          -1.768000E-09                                                                                             
0          301      S     -5.877852E-01                                                                                             
                          -2.015995E-08                                                                                             
0          351      S     -9.510565E-01                                                                                             
                          -1.552909E-08                                                                                             
0          401      S     -9.510565E-01                                                                                             
                          -4.664578E-08                                                                                             
0          451      S     -5.877853E-01                                                                                             
                           1.662234E-08                                                                                             
1     COMPLEX EIGENVALUES OF A 500 CELL STRING                              /    95 SUN SOLARIS NASTRAN    / MAY 17, 95 / PAGE    29
      NASTRAN DEMONSTRATION PROBLEM NO. D07-01-1A                                                                                   
0                                                                                                                                   
      COMPLEX EIGENVALUE = -1.255580E+00,  1.887015E+01    (CYCLIC FREQUENCY =  3.003278E+00HZ)
                                       C O M P L E X   E I G E N V E C T O R   NO.          3
                                                          (REAL/IMAGINARY)
 
      POINT ID.   TYPE          T1             T2             T3             R1             R2             R3
0           51      S     -8.090212E-01                                                                                             
                           3.180331E-06                                                                                             
0          101      S     -9.510600E-01                                                                                             
                           1.012757E-06                                                                                             
0          151      S     -3.090076E-01                                                                                             
                          -3.094987E-06                                                                                             
0          201      S      5.877863E-01                                                                                             
                           3.051199E-07                                                                                             
0          251      S      1.000000E+00                                                                                             
                           0.0                                                                                                      
0          301      S      5.877882E-01                                                                                             
                           5.469935E-07                                                                                             
0          351      S     -3.090219E-01                                                                                             
                           5.589221E-06                                                                                             
0          401      S     -9.510580E-01                                                                                             
                           1.454733E-06                                                                                             
0          451      S     -8.090148E-01                                                                                             
                          -3.636868E-06                                                                                             




                                        * * * END OF JOB * * *
1
 JOB TITLE =  COMPLEX EIGENVALUES OF A 500 CELL STRING                           
 DATE:  5/17/95
 END TIME: 15:53:26
 TOTAL WALL CLOCK TIME      3 SEC.
 
