





                                  ****
                                *      *
                               *        *
                               *  N A S T R A N
                               *        *
                                *      *
                                  ****


                             SUN COMPUTER SYSTEMS    
                                SOLARIS VERSION

                          SYSTEM RELEASE -  1995 ED.

                                DISTRIBUTED BY

         COMPUTER SOFTWARE MANAGEMENT AND INFORMATION CENTER (COSMIC)
                 UNIVERSITY OF GEORGIA, ATHENS, GEORGIA 30602
                 PHONE: (706)542-3265      FAX: (706)542-4807
1                                                                           /    95 SUN SOLARIS NASTRAN    / MAY 17, 95 / PAGE     2
                                                                                                                                    
0                                                                                                                                   
                                                                                                         
                                                                                                         
                         INSTALLATION CENTER USER INFORMATION GIVEN IN THIS SECTION                      
                                                                                                         
                                     *********************************************                       
                                     *                                           *                       
                                     *  PLEASE READ THE COMMENT IN DEMO PROBLEM  *                       
                                     *  D01002A ABOUT SYSTEM TIMING CONSTANTS    *                       
                                     *                                           *                       
                                     *********************************************                       
                                                                                                         
                         ===X=    TOP OF PAGE REQUEST IF 'X' IS REPLACED BY '='                          
                                                                                                         
1                                                                           /    95 SUN SOLARIS NASTRAN    / MAY 17, 95 / PAGE     3
                                                                                                                                    
0                                                                                                                                   
0*** USER INFORMATION MESSAGE 225, GINO TIME CONSTANTS ARE BEING COMPUTED
     (SEE NASINFO FILE FOR ELIMINATION OF THESE COMPUTATIONS)
1                                                                           /    95 SUN SOLARIS NASTRAN    / MAY 17, 95 / PAGE     4
                                                                                                                                    
0        N A S T R A N    E X E C U T I V E    C O N T R O L    D E C K    E C H O                                                  
0                                                                                                                                   
                                                                                                                                    
                                                                                                                                    
     ID    D08012A,NASTRAN                                                           
     APP   DISPLACEMENT                                                              
     SOL   8,1                                                                       
     TIME  30                                                                        
     CEND                                                                            


0*** USER INFORMATION MESSAGE, TURN DIAG 48 ON FOR NASTRAN RELEASE NEWS, DIAG DEFINITION, NEW DMAP
         MODULES AND NEW BULKDATA CARDS INFORMATION
1     FREQUENCY RESPONSE OF A 20X20 PLATE                                   /    95 SUN SOLARIS NASTRAN    / MAY 17, 95 / PAGE     5
      NASTRAN DEMONSTRATION PROBLEM NO. D08-01-2A                                                                                   
0                                                                                                                                   
0                                        C A S E    C O N T R O L   D E C K   E C H O                                               
                 CARD                                                                                                               
                 COUNT                                                                                                              
                  1      TITLE    = FREQUENCY RESPONSE OF A 20X20 PLATE                                  
                  2      SUBTITLE = NASTRAN DEMONSTRATION PROBLEM NO. D08-01-2A                          
                  3           SPC = 37                                                                   
                  4         DLOAD =  8                                                                   
                  5      FREQUENCY= 8                                                                    
                  6      OUTPUT                                                                          
                  7         SET 1 = 1,7,13,21,  169,189,  295,315,  421,427,433,441                      
                  8         DISPLACEMENT(SORT2,PHASE) = 1                                                
                  9         SPCFORCE(SORT2,PHASE) = 1                                                    
                 10      BEGIN BULK                                                                      


                        (NO. OF UNSORTED BULK DATA CARDS READ =  1261, INCLUDING   0 COMMENT CARDS)
0*** USER INFORMATION MESSAGE 207, BULK DATA DECK IS NOT SORTED. NASTRAN WILL RE-ORDER THE INPUT DECK.
1     FREQUENCY RESPONSE OF A 20X20 PLATE                                   /    95 SUN SOLARIS NASTRAN    / MAY 17, 95 / PAGE     6
      NASTRAN DEMONSTRATION PROBLEM NO. D08-01-2A                                                                                   
0                                                                                                                                   
0                                                 S O R T E D   B U L K    D A T A    E C H O                                       
                     CARD                                                                                                           
                     COUNT        ---1--- +++2+++ ---3--- +++4+++ ---5--- +++6+++ ---7--- +++8+++ ---9--- +++10+++                  
                    1-        CNGRNT  1       2       THRU    419                                             
                    2-        CQUAD1  1       23      1       2       23      22      .00                     
                    3-        CQUAD1  2       23      2       3       24      23      .00                     
                    4-        CQUAD1  3       23      3       4       25      24      .00                     
                    5-        CQUAD1  4       23      4       5       26      25      .00                     
                    6-        CQUAD1  5       23      5       6       27      26      .00                     
                    7-        CQUAD1  6       23      6       7       28      27      .00                     
                    8-        CQUAD1  7       23      7       8       29      28      .00                     
                    9-        CQUAD1  8       23      8       9       30      29      .00                     
                   10-        CQUAD1  9       23      9       10      31      30      .00                     
                   11-        CQUAD1  10      23      10      11      32      31      .00                     
                   12-        CQUAD1  11      23      11      12      33      32      .00                     
                   13-        CQUAD1  12      23      12      13      34      33      .00                     
                   14-        CQUAD1  13      23      13      14      35      34      .00                     
                   15-        CQUAD1  14      23      14      15      36      35      .00                     
                   16-        CQUAD1  15      23      15      16      37      36      .00                     
                   17-        CQUAD1  16      23      16      17      38      37      .00                     
                   18-        CQUAD1  17      23      17      18      39      38      .00                     
                   19-        CQUAD1  18      23      18      19      40      39      .00                     
                   20-        CQUAD1  19      23      19      20      41      40      .00                     
                   21-        CQUAD1  20      23      20      21      42      41      .00                     
                   22-        CQUAD1  22      23      22      23      44      43      .00                     
                   23-        CQUAD1  23      23      23      24      45      44      .00                     
                   24-        CQUAD1  24      23      24      25      46      45      .00                     
                   25-        CQUAD1  25      23      25      26      47      46      .00                     
                   26-        CQUAD1  26      23      26      27      48      47      .00                     
                   27-        CQUAD1  27      23      27      28      49      48      .00                     
                   28-        CQUAD1  28      23      28      29      50      49      .00                     
                   29-        CQUAD1  29      23      29      30      51      50      .00                     
                   30-        CQUAD1  30      23      30      31      52      51      .00                     
                   31-        CQUAD1  31      23      31      32      53      52      .00                     
                   32-        CQUAD1  32      23      32      33      54      53      .00                     
                   33-        CQUAD1  33      23      33      34      55      54      .00                     
                   34-        CQUAD1  34      23      34      35      56      55      .00                     
                   35-        CQUAD1  35      23      35      36      57      56      .00                     
                   36-        CQUAD1  36      23      36      37      58      57      .00                     
                   37-        CQUAD1  37      23      37      38      59      58      .00                     
                   38-        CQUAD1  38      23      38      39      60      59      .00                     
                   39-        CQUAD1  39      23      39      40      61      60      .00                     
                   40-        CQUAD1  40      23      40      41      62      61      .00                     
                   41-        CQUAD1  41      23      41      42      63      62      .00                     
                   42-        CQUAD1  43      23      43      44      65      64      .00                     
                   43-        CQUAD1  44      23      44      45      66      65      .00                     
                   44-        CQUAD1  45      23      45      46      67      66      .00                     
                   45-        CQUAD1  46      23      46      47      68      67      .00                     
                   46-        CQUAD1  47      23      47      48      69      68      .00                     
                   47-        CQUAD1  48      23      48      49      70      69      .00                     
1     FREQUENCY RESPONSE OF A 20X20 PLATE                                   /    95 SUN SOLARIS NASTRAN    / MAY 17, 95 / PAGE     7
      NASTRAN DEMONSTRATION PROBLEM NO. D08-01-2A                                                                                   

                                                                                                                                    

                                                  S O R T E D   B U L K    D A T A    E C H O                                       
                     CARD                                                                                                           
                     COUNT        ---1--- +++2+++ ---3--- +++4+++ ---5--- +++6+++ ---7--- +++8+++ ---9--- +++10+++                  
                   48-        CQUAD1  49      23      49      50      71      70      .00                     
                   49-        CQUAD1  50      23      50      51      72      71      .00                     
                   50-        CQUAD1  51      23      51      52      73      72      .00                     
                   51-        CQUAD1  52      23      52      53      74      73      .00                     
                   52-        CQUAD1  53      23      53      54      75      74      .00                     
                   53-        CQUAD1  54      23      54      55      76      75      .00                     
                   54-        CQUAD1  55      23      55      56      77      76      .00                     
                   55-        CQUAD1  56      23      56      57      78      77      .00                     
                   56-        CQUAD1  57      23      57      58      79      78      .00                     
                   57-        CQUAD1  58      23      58      59      80      79      .00                     
                   58-        CQUAD1  59      23      59      60      81      80      .00                     
                   59-        CQUAD1  60      23      60      61      82      81      .00                     
                   60-        CQUAD1  61      23      61      62      83      82      .00                     
                   61-        CQUAD1  62      23      62      63      84      83      .00                     
                   62-        CQUAD1  64      23      64      65      86      85      .00                     
                   63-        CQUAD1  65      23      65      66      87      86      .00                     
                   64-        CQUAD1  66      23      66      67      88      87      .00                     
                   65-        CQUAD1  67      23      67      68      89      88      .00                     
                   66-        CQUAD1  68      23      68      69      90      89      .00                     
                   67-        CQUAD1  69      23      69      70      91      90      .00                     
                   68-        CQUAD1  70      23      70      71      92      91      .00                     
                   69-        CQUAD1  71      23      71      72      93      92      .00                     
                   70-        CQUAD1  72      23      72      73      94      93      .00                     
                   71-        CQUAD1  73      23      73      74      95      94      .00                     
                   72-        CQUAD1  74      23      74      75      96      95      .00                     
                   73-        CQUAD1  75      23      75      76      97      96      .00                     
                   74-        CQUAD1  76      23      76      77      98      97      .00                     
                   75-        CQUAD1  77      23      77      78      99      98      .00                     
                   76-        CQUAD1  78      23      78      79      100     99      .00                     
                   77-        CQUAD1  79      23      79      80      101     100     .00                     
                   78-        CQUAD1  80      23      80      81      102     101     .00                     
                   79-        CQUAD1  81      23      81      82      103     102     .00                     
                   80-        CQUAD1  82      23      82      83      104     103     .00                     
                   81-        CQUAD1  83      23      83      84      105     104     .00                     
                   82-        CQUAD1  85      23      85      86      107     106     .00                     
                   83-        CQUAD1  86      23      86      87      108     107     .00                     
                   84-        CQUAD1  87      23      87      88      109     108     .00                     
                   85-        CQUAD1  88      23      88      89      110     109     .00                     
                   86-        CQUAD1  89      23      89      90      111     110     .00                     
                   87-        CQUAD1  90      23      90      91      112     111     .00                     
                   88-        CQUAD1  91      23      91      92      113     112     .00                     
                   89-        CQUAD1  92      23      92      93      114     113     .00                     
                   90-        CQUAD1  93      23      93      94      115     114     .00                     
                   91-        CQUAD1  94      23      94      95      116     115     .00                     
                   92-        CQUAD1  95      23      95      96      117     116     .00                     
                   93-        CQUAD1  96      23      96      97      118     117     .00                     
                   94-        CQUAD1  97      23      97      98      119     118     .00                     
1     FREQUENCY RESPONSE OF A 20X20 PLATE                                   /    95 SUN SOLARIS NASTRAN    / MAY 17, 95 / PAGE     8
      NASTRAN DEMONSTRATION PROBLEM NO. D08-01-2A                                                                                   

                                                                                                                                    

                                                  S O R T E D   B U L K    D A T A    E C H O                                       
                     CARD                                                                                                           
                     COUNT        ---1--- +++2+++ ---3--- +++4+++ ---5--- +++6+++ ---7--- +++8+++ ---9--- +++10+++                  
                   95-        CQUAD1  98      23      98      99      120     119     .00                     
                   96-        CQUAD1  99      23      99      100     121     120     .00                     
                   97-        CQUAD1  100     23      100     101     122     121     .00                     
                   98-        CQUAD1  101     23      101     102     123     122     .00                     
                   99-        CQUAD1  102     23      102     103     124     123     .00                     
                  100-        CQUAD1  103     23      103     104     125     124     .00                     
                  101-        CQUAD1  104     23      104     105     126     125     .00                     
                  102-        CQUAD1  106     23      106     107     128     127     .00                     
                  103-        CQUAD1  107     23      107     108     129     128     .00                     
                  104-        CQUAD1  108     23      108     109     130     129     .00                     
                  105-        CQUAD1  109     23      109     110     131     130     .00                     
                  106-        CQUAD1  110     23      110     111     132     131     .00                     
                  107-        CQUAD1  111     23      111     112     133     132     .00                     
                  108-        CQUAD1  112     23      112     113     134     133     .00                     
                  109-        CQUAD1  113     23      113     114     135     134     .00                     
                  110-        CQUAD1  114     23      114     115     136     135     .00                     
                  111-        CQUAD1  115     23      115     116     137     136     .00                     
                  112-        CQUAD1  116     23      116     117     138     137     .00                     
                  113-        CQUAD1  117     23      117     118     139     138     .00                     
                  114-        CQUAD1  118     23      118     119     140     139     .00                     
                  115-        CQUAD1  119     23      119     120     141     140     .00                     
                  116-        CQUAD1  120     23      120     121     142     141     .00                     
                  117-        CQUAD1  121     23      121     122     143     142     .00                     
                  118-        CQUAD1  122     23      122     123     144     143     .00                     
                  119-        CQUAD1  123     23      123     124     145     144     .00                     
                  120-        CQUAD1  124     23      124     125     146     145     .00                     
                  121-        CQUAD1  125     23      125     126     147     146     .00                     
                  122-        CQUAD1  127     23      127     128     149     148     .00                     
                  123-        CQUAD1  128     23      128     129     150     149     .00                     
                  124-        CQUAD1  129     23      129     130     151     150     .00                     
                  125-        CQUAD1  130     23      130     131     152     151     .00                     
                  126-        CQUAD1  131     23      131     132     153     152     .00                     
                  127-        CQUAD1  132     23      132     133     154     153     .00                     
                  128-        CQUAD1  133     23      133     134     155     154     .00                     
                  129-        CQUAD1  134     23      134     135     156     155     .00                     
                  130-        CQUAD1  135     23      135     136     157     156     .00                     
                  131-        CQUAD1  136     23      136     137     158     157     .00                     
                  132-        CQUAD1  137     23      137     138     159     158     .00                     
                  133-        CQUAD1  138     23      138     139     160     159     .00                     
                  134-        CQUAD1  139     23      139     140     161     160     .00                     
                  135-        CQUAD1  140     23      140     141     162     161     .00                     
                  136-        CQUAD1  141     23      141     142     163     162     .00                     
                  137-        CQUAD1  142     23      142     143     164     163     .00                     
                  138-        CQUAD1  143     23      143     144     165     164     .00                     
                  139-        CQUAD1  144     23      144     145     166     165     .00                     
                  140-        CQUAD1  145     23      145     146     167     166     .00                     
                  141-        CQUAD1  146     23      146     147     168     167     .00                     
1     FREQUENCY RESPONSE OF A 20X20 PLATE                                   /    95 SUN SOLARIS NASTRAN    / MAY 17, 95 / PAGE     9
      NASTRAN DEMONSTRATION PROBLEM NO. D08-01-2A                                                                                   

                                                                                                                                    

                                                  S O R T E D   B U L K    D A T A    E C H O                                       
                     CARD                                                                                                           
                     COUNT        ---1--- +++2+++ ---3--- +++4+++ ---5--- +++6+++ ---7--- +++8+++ ---9--- +++10+++                  
                  142-        CQUAD1  148     23      148     149     170     169     .00                     
                  143-        CQUAD1  149     23      149     150     171     170     .00                     
                  144-        CQUAD1  150     23      150     151     172     171     .00                     
                  145-        CQUAD1  151     23      151     152     173     172     .00                     
                  146-        CQUAD1  152     23      152     153     174     173     .00                     
                  147-        CQUAD1  153     23      153     154     175     174     .00                     
                  148-        CQUAD1  154     23      154     155     176     175     .00                     
                  149-        CQUAD1  155     23      155     156     177     176     .00                     
                  150-        CQUAD1  156     23      156     157     178     177     .00                     
                  151-        CQUAD1  157     23      157     158     179     178     .00                     
                  152-        CQUAD1  158     23      158     159     180     179     .00                     
                  153-        CQUAD1  159     23      159     160     181     180     .00                     
                  154-        CQUAD1  160     23      160     161     182     181     .00                     
                  155-        CQUAD1  161     23      161     162     183     182     .00                     
                  156-        CQUAD1  162     23      162     163     184     183     .00                     
                  157-        CQUAD1  163     23      163     164     185     184     .00                     
                  158-        CQUAD1  164     23      164     165     186     185     .00                     
                  159-        CQUAD1  165     23      165     166     187     186     .00                     
                  160-        CQUAD1  166     23      166     167     188     187     .00                     
                  161-        CQUAD1  167     23      167     168     189     188     .00                     
                  162-        CQUAD1  169     23      169     170     191     190     .00                     
                  163-        CQUAD1  170     23      170     171     192     191     .00                     
                  164-        CQUAD1  171     23      171     172     193     192     .00                     
                  165-        CQUAD1  172     23      172     173     194     193     .00                     
                  166-        CQUAD1  173     23      173     174     195     194     .00                     
                  167-        CQUAD1  174     23      174     175     196     195     .00                     
                  168-        CQUAD1  175     23      175     176     197     196     .00                     
                  169-        CQUAD1  176     23      176     177     198     197     .00                     
                  170-        CQUAD1  177     23      177     178     199     198     .00                     
                  171-        CQUAD1  178     23      178     179     200     199     .00                     
                  172-        CQUAD1  179     23      179     180     201     200     .00                     
                  173-        CQUAD1  180     23      180     181     202     201     .00                     
                  174-        CQUAD1  181     23      181     182     203     202     .00                     
                  175-        CQUAD1  182     23      182     183     204     203     .00                     
                  176-        CQUAD1  183     23      183     184     205     204     .00                     
                  177-        CQUAD1  184     23      184     185     206     205     .00                     
                  178-        CQUAD1  185     23      185     186     207     206     .00                     
                  179-        CQUAD1  186     23      186     187     208     207     .00                     
                  180-        CQUAD1  187     23      187     188     209     208     .00                     
                  181-        CQUAD1  188     23      188     189     210     209     .00                     
                  182-        CQUAD1  190     23      190     191     212     211     .00                     
                  183-        CQUAD1  191     23      191     192     213     212     .00                     
                  184-        CQUAD1  192     23      192     193     214     213     .00                     
                  185-        CQUAD1  193     23      193     194     215     214     .00                     
                  186-        CQUAD1  194     23      194     195     216     215     .00                     
                  187-        CQUAD1  195     23      195     196     217     216     .00                     
                  188-        CQUAD1  196     23      196     197     218     217     .00                     
1     FREQUENCY RESPONSE OF A 20X20 PLATE                                   /    95 SUN SOLARIS NASTRAN    / MAY 17, 95 / PAGE    10
      NASTRAN DEMONSTRATION PROBLEM NO. D08-01-2A                                                                                   

                                                                                                                                    

                                                  S O R T E D   B U L K    D A T A    E C H O                                       
                     CARD                                                                                                           
                     COUNT        ---1--- +++2+++ ---3--- +++4+++ ---5--- +++6+++ ---7--- +++8+++ ---9--- +++10+++                  
                  189-        CQUAD1  197     23      197     198     219     218     .00                     
                  190-        CQUAD1  198     23      198     199     220     219     .00                     
                  191-        CQUAD1  199     23      199     200     221     220     .00                     
                  192-        CQUAD1  200     23      200     201     222     221     .00                     
                  193-        CQUAD1  201     23      201     202     223     222     .00                     
                  194-        CQUAD1  202     23      202     203     224     223     .00                     
                  195-        CQUAD1  203     23      203     204     225     224     .00                     
                  196-        CQUAD1  204     23      204     205     226     225     .00                     
                  197-        CQUAD1  205     23      205     206     227     226     .00                     
                  198-        CQUAD1  206     23      206     207     228     227     .00                     
                  199-        CQUAD1  207     23      207     208     229     228     .00                     
                  200-        CQUAD1  208     23      208     209     230     229     .00                     
                  201-        CQUAD1  209     23      209     210     231     230     .00                     
                  202-        CQUAD1  211     23      211     212     233     232     .00                     
                  203-        CQUAD1  212     23      212     213     234     233     .00                     
                  204-        CQUAD1  213     23      213     214     235     234     .00                     
                  205-        CQUAD1  214     23      214     215     236     235     .00                     
                  206-        CQUAD1  215     23      215     216     237     236     .00                     
                  207-        CQUAD1  216     23      216     217     238     237     .00                     
                  208-        CQUAD1  217     23      217     218     239     238     .00                     
                  209-        CQUAD1  218     23      218     219     240     239     .00                     
                  210-        CQUAD1  219     23      219     220     241     240     .00                     
                  211-        CQUAD1  220     23      220     221     242     241     .00                     
                  212-        CQUAD1  221     23      221     222     243     242     .00                     
                  213-        CQUAD1  222     23      222     223     244     243     .00                     
                  214-        CQUAD1  223     23      223     224     245     244     .00                     
                  215-        CQUAD1  224     23      224     225     246     245     .00                     
                  216-        CQUAD1  225     23      225     226     247     246     .00                     
                  217-        CQUAD1  226     23      226     227     248     247     .00                     
                  218-        CQUAD1  227     23      227     228     249     248     .00                     
                  219-        CQUAD1  228     23      228     229     250     249     .00                     
                  220-        CQUAD1  229     23      229     230     251     250     .00                     
                  221-        CQUAD1  230     23      230     231     252     251     .00                     
                  222-        CQUAD1  232     23      232     233     254     253     .00                     
                  223-        CQUAD1  233     23      233     234     255     254     .00                     
                  224-        CQUAD1  234     23      234     235     256     255     .00                     
                  225-        CQUAD1  235     23      235     236     257     256     .00                     
                  226-        CQUAD1  236     23      236     237     258     257     .00                     
                  227-        CQUAD1  237     23      237     238     259     258     .00                     
                  228-        CQUAD1  238     23      238     239     260     259     .00                     
                  229-        CQUAD1  239     23      239     240     261     260     .00                     
                  230-        CQUAD1  240     23      240     241     262     261     .00                     
                  231-        CQUAD1  241     23      241     242     263     262     .00                     
                  232-        CQUAD1  242     23      242     243     264     263     .00                     
                  233-        CQUAD1  243     23      243     244     265     264     .00                     
                  234-        CQUAD1  244     23      244     245     266     265     .00                     
                  235-        CQUAD1  245     23      245     246     267     266     .00                     
1     FREQUENCY RESPONSE OF A 20X20 PLATE                                   /    95 SUN SOLARIS NASTRAN    / MAY 17, 95 / PAGE    11
      NASTRAN DEMONSTRATION PROBLEM NO. D08-01-2A                                                                                   

                                                                                                                                    

                                                  S O R T E D   B U L K    D A T A    E C H O                                       
                     CARD                                                                                                           
                     COUNT        ---1--- +++2+++ ---3--- +++4+++ ---5--- +++6+++ ---7--- +++8+++ ---9--- +++10+++                  
                  236-        CQUAD1  246     23      246     247     268     267     .00                     
                  237-        CQUAD1  247     23      247     248     269     268     .00                     
                  238-        CQUAD1  248     23      248     249     270     269     .00                     
                  239-        CQUAD1  249     23      249     250     271     270     .00                     
                  240-        CQUAD1  250     23      250     251     272     271     .00                     
                  241-        CQUAD1  251     23      251     252     273     272     .00                     
                  242-        CQUAD1  253     23      253     254     275     274     .00                     
                  243-        CQUAD1  254     23      254     255     276     275     .00                     
                  244-        CQUAD1  255     23      255     256     277     276     .00                     
                  245-        CQUAD1  256     23      256     257     278     277     .00                     
                  246-        CQUAD1  257     23      257     258     279     278     .00                     
                  247-        CQUAD1  258     23      258     259     280     279     .00                     
                  248-        CQUAD1  259     23      259     260     281     280     .00                     
                  249-        CQUAD1  260     23      260     261     282     281     .00                     
                  250-        CQUAD1  261     23      261     262     283     282     .00                     
                  251-        CQUAD1  262     23      262     263     284     283     .00                     
                  252-        CQUAD1  263     23      263     264     285     284     .00                     
                  253-        CQUAD1  264     23      264     265     286     285     .00                     
                  254-        CQUAD1  265     23      265     266     287     286     .00                     
                  255-        CQUAD1  266     23      266     267     288     287     .00                     
                  256-        CQUAD1  267     23      267     268     289     288     .00                     
                  257-        CQUAD1  268     23      268     269     290     289     .00                     
                  258-        CQUAD1  269     23      269     270     291     290     .00                     
                  259-        CQUAD1  270     23      270     271     292     291     .00                     
                  260-        CQUAD1  271     23      271     272     293     292     .00                     
                  261-        CQUAD1  272     23      272     273     294     293     .00                     
                  262-        CQUAD1  274     23      274     275     296     295     .00                     
                  263-        CQUAD1  275     23      275     276     297     296     .00                     
                  264-        CQUAD1  276     23      276     277     298     297     .00                     
                  265-        CQUAD1  277     23      277     278     299     298     .00                     
                  266-        CQUAD1  278     23      278     279     300     299     .00                     
                  267-        CQUAD1  279     23      279     280     301     300     .00                     
                  268-        CQUAD1  280     23      280     281     302     301     .00                     
                  269-        CQUAD1  281     23      281     282     303     302     .00                     
                  270-        CQUAD1  282     23      282     283     304     303     .00                     
                  271-        CQUAD1  283     23      283     284     305     304     .00                     
                  272-        CQUAD1  284     23      284     285     306     305     .00                     
                  273-        CQUAD1  285     23      285     286     307     306     .00                     
                  274-        CQUAD1  286     23      286     287     308     307     .00                     
                  275-        CQUAD1  287     23      287     288     309     308     .00                     
                  276-        CQUAD1  288     23      288     289     310     309     .00                     
                  277-        CQUAD1  289     23      289     290     311     310     .00                     
                  278-        CQUAD1  290     23      290     291     312     311     .00                     
                  279-        CQUAD1  291     23      291     292     313     312     .00                     
                  280-        CQUAD1  292     23      292     293     314     313     .00                     
                  281-        CQUAD1  293     23      293     294     315     314     .00                     
                  282-        CQUAD1  295     23      295     296     317     316     .00                     
1     FREQUENCY RESPONSE OF A 20X20 PLATE                                   /    95 SUN SOLARIS NASTRAN    / MAY 17, 95 / PAGE    12
      NASTRAN DEMONSTRATION PROBLEM NO. D08-01-2A                                                                                   

                                                                                                                                    

                                                  S O R T E D   B U L K    D A T A    E C H O                                       
                     CARD                                                                                                           
                     COUNT        ---1--- +++2+++ ---3--- +++4+++ ---5--- +++6+++ ---7--- +++8+++ ---9--- +++10+++                  
                  283-        CQUAD1  296     23      296     297     318     317     .00                     
                  284-        CQUAD1  297     23      297     298     319     318     .00                     
                  285-        CQUAD1  298     23      298     299     320     319     .00                     
                  286-        CQUAD1  299     23      299     300     321     320     .00                     
                  287-        CQUAD1  300     23      300     301     322     321     .00                     
                  288-        CQUAD1  301     23      301     302     323     322     .00                     
                  289-        CQUAD1  302     23      302     303     324     323     .00                     
                  290-        CQUAD1  303     23      303     304     325     324     .00                     
                  291-        CQUAD1  304     23      304     305     326     325     .00                     
                  292-        CQUAD1  305     23      305     306     327     326     .00                     
                  293-        CQUAD1  306     23      306     307     328     327     .00                     
                  294-        CQUAD1  307     23      307     308     329     328     .00                     
                  295-        CQUAD1  308     23      308     309     330     329     .00                     
                  296-        CQUAD1  309     23      309     310     331     330     .00                     
                  297-        CQUAD1  310     23      310     311     332     331     .00                     
                  298-        CQUAD1  311     23      311     312     333     332     .00                     
                  299-        CQUAD1  312     23      312     313     334     333     .00                     
                  300-        CQUAD1  313     23      313     314     335     334     .00                     
                  301-        CQUAD1  314     23      314     315     336     335     .00                     
                  302-        CQUAD1  316     23      316     317     338     337     .00                     
                  303-        CQUAD1  317     23      317     318     339     338     .00                     
                  304-        CQUAD1  318     23      318     319     340     339     .00                     
                  305-        CQUAD1  319     23      319     320     341     340     .00                     
                  306-        CQUAD1  320     23      320     321     342     341     .00                     
                  307-        CQUAD1  321     23      321     322     343     342     .00                     
                  308-        CQUAD1  322     23      322     323     344     343     .00                     
                  309-        CQUAD1  323     23      323     324     345     344     .00                     
                  310-        CQUAD1  324     23      324     325     346     345     .00                     
                  311-        CQUAD1  325     23      325     326     347     346     .00                     
                  312-        CQUAD1  326     23      326     327     348     347     .00                     
                  313-        CQUAD1  327     23      327     328     349     348     .00                     
                  314-        CQUAD1  328     23      328     329     350     349     .00                     
                  315-        CQUAD1  329     23      329     330     351     350     .00                     
                  316-        CQUAD1  330     23      330     331     352     351     .00                     
                  317-        CQUAD1  331     23      331     332     353     352     .00                     
                  318-        CQUAD1  332     23      332     333     354     353     .00                     
                  319-        CQUAD1  333     23      333     334     355     354     .00                     
                  320-        CQUAD1  334     23      334     335     356     355     .00                     
                  321-        CQUAD1  335     23      335     336     357     356     .00                     
                  322-        CQUAD1  337     23      337     338     359     358     .00                     
                  323-        CQUAD1  338     23      338     339     360     359     .00                     
                  324-        CQUAD1  339     23      339     340     361     360     .00                     
                  325-        CQUAD1  340     23      340     341     362     361     .00                     
                  326-        CQUAD1  341     23      341     342     363     362     .00                     
                  327-        CQUAD1  342     23      342     343     364     363     .00                     
                  328-        CQUAD1  343     23      343     344     365     364     .00                     
                  329-        CQUAD1  344     23      344     345     366     365     .00                     
1     FREQUENCY RESPONSE OF A 20X20 PLATE                                   /    95 SUN SOLARIS NASTRAN    / MAY 17, 95 / PAGE    13
      NASTRAN DEMONSTRATION PROBLEM NO. D08-01-2A                                                                                   

                                                                                                                                    

                                                  S O R T E D   B U L K    D A T A    E C H O                                       
                     CARD                                                                                                           
                     COUNT        ---1--- +++2+++ ---3--- +++4+++ ---5--- +++6+++ ---7--- +++8+++ ---9--- +++10+++                  
                  330-        CQUAD1  345     23      345     346     367     366     .00                     
                  331-        CQUAD1  346     23      346     347     368     367     .00                     
                  332-        CQUAD1  347     23      347     348     369     368     .00                     
                  333-        CQUAD1  348     23      348     349     370     369     .00                     
                  334-        CQUAD1  349     23      349     350     371     370     .00                     
                  335-        CQUAD1  350     23      350     351     372     371     .00                     
                  336-        CQUAD1  351     23      351     352     373     372     .00                     
                  337-        CQUAD1  352     23      352     353     374     373     .00                     
                  338-        CQUAD1  353     23      353     354     375     374     .00                     
                  339-        CQUAD1  354     23      354     355     376     375     .00                     
                  340-        CQUAD1  355     23      355     356     377     376     .00                     
                  341-        CQUAD1  356     23      356     357     378     377     .00                     
                  342-        CQUAD1  358     23      358     359     380     379     .00                     
                  343-        CQUAD1  359     23      359     360     381     380     .00                     
                  344-        CQUAD1  360     23      360     361     382     381     .00                     
                  345-        CQUAD1  361     23      361     362     383     382     .00                     
                  346-        CQUAD1  362     23      362     363     384     383     .00                     
                  347-        CQUAD1  363     23      363     364     385     384     .00                     
                  348-        CQUAD1  364     23      364     365     386     385     .00                     
                  349-        CQUAD1  365     23      365     366     387     386     .00                     
                  350-        CQUAD1  366     23      366     367     388     387     .00                     
                  351-        CQUAD1  367     23      367     368     389     388     .00                     
                  352-        CQUAD1  368     23      368     369     390     389     .00                     
                  353-        CQUAD1  369     23      369     370     391     390     .00                     
                  354-        CQUAD1  370     23      370     371     392     391     .00                     
                  355-        CQUAD1  371     23      371     372     393     392     .00                     
                  356-        CQUAD1  372     23      372     373     394     393     .00                     
                  357-        CQUAD1  373     23      373     374     395     394     .00                     
                  358-        CQUAD1  374     23      374     375     396     395     .00                     
                  359-        CQUAD1  375     23      375     376     397     396     .00                     
                  360-        CQUAD1  376     23      376     377     398     397     .00                     
                  361-        CQUAD1  377     23      377     378     399     398     .00                     
                  362-        CQUAD1  379     23      379     380     401     400     .00                     
                  363-        CQUAD1  380     23      380     381     402     401     .00                     
                  364-        CQUAD1  381     23      381     382     403     402     .00                     
                  365-        CQUAD1  382     23      382     383     404     403     .00                     
                  366-        CQUAD1  383     23      383     384     405     404     .00                     
                  367-        CQUAD1  384     23      384     385     406     405     .00                     
                  368-        CQUAD1  385     23      385     386     407     406     .00                     
                  369-        CQUAD1  386     23      386     387     408     407     .00                     
                  370-        CQUAD1  387     23      387     388     409     408     .00                     
                  371-        CQUAD1  388     23      388     389     410     409     .00                     
                  372-        CQUAD1  389     23      389     390     411     410     .00                     
                  373-        CQUAD1  390     23      390     391     412     411     .00                     
                  374-        CQUAD1  391     23      391     392     413     412     .00                     
                  375-        CQUAD1  392     23      392     393     414     413     .00                     
                  376-        CQUAD1  393     23      393     394     415     414     .00                     
1     FREQUENCY RESPONSE OF A 20X20 PLATE                                   /    95 SUN SOLARIS NASTRAN    / MAY 17, 95 / PAGE    14
      NASTRAN DEMONSTRATION PROBLEM NO. D08-01-2A                                                                                   

                                                                                                                                    

                                                  S O R T E D   B U L K    D A T A    E C H O                                       
                     CARD                                                                                                           
                     COUNT        ---1--- +++2+++ ---3--- +++4+++ ---5--- +++6+++ ---7--- +++8+++ ---9--- +++10+++                  
                  377-        CQUAD1  394     23      394     395     416     415     .00                     
                  378-        CQUAD1  395     23      395     396     417     416     .00                     
                  379-        CQUAD1  396     23      396     397     418     417     .00                     
                  380-        CQUAD1  397     23      397     398     419     418     .00                     
                  381-        CQUAD1  398     23      398     399     420     419     .00                     
                  382-        CQUAD1  400     23      400     401     422     421     .00                     
                  383-        CQUAD1  401     23      401     402     423     422     .00                     
                  384-        CQUAD1  402     23      402     403     424     423     .00                     
                  385-        CQUAD1  403     23      403     404     425     424     .00                     
                  386-        CQUAD1  404     23      404     405     426     425     .00                     
                  387-        CQUAD1  405     23      405     406     427     426     .00                     
                  388-        CQUAD1  406     23      406     407     428     427     .00                     
                  389-        CQUAD1  407     23      407     408     429     428     .00                     
                  390-        CQUAD1  408     23      408     409     430     429     .00                     
                  391-        CQUAD1  409     23      409     410     431     430     .00                     
                  392-        CQUAD1  410     23      410     411     432     431     .00                     
                  393-        CQUAD1  411     23      411     412     433     432     .00                     
                  394-        CQUAD1  412     23      412     413     434     433     .00                     
                  395-        CQUAD1  413     23      413     414     435     434     .00                     
                  396-        CQUAD1  414     23      414     415     436     435     .00                     
                  397-        CQUAD1  415     23      415     416     437     436     .00                     
                  398-        CQUAD1  416     23      416     417     438     437     .00                     
                  399-        CQUAD1  417     23      417     418     439     438     .00                     
                  400-        CQUAD1  418     23      418     419     440     439     .00                     
                  401-        CQUAD1  419     23      419     420     441     440     .00                     
                  402-        DAREA  *37              1               3               2.5000000E-01           
                  403-        DAREA  *37              2               3               4.9845867E-01           
                  404-        DAREA  *37              3               3               4.9384417E-01           
                  405-        DAREA  *37              4               3               4.8618496E-01           
                  406-        DAREA  *37              5               3               4.7552826E-01           
                  407-        DAREA  *37              6               3               4.6193977E-01           
                  408-        DAREA  *37              7               3               4.4550326E-01           
                  409-        DAREA  *37              8               3               4.2632008E-01           
                  410-        DAREA  *37              9               3               4.0450850E-01           
                  411-        DAREA  *37              10              3               3.8020299E-01           
                  412-        DAREA  *37              11              3               3.5355339E-01           
                  413-        DAREA  *37              12              3               3.2472403E-01           
                  414-        DAREA  *37              13              3               2.9389263E-01           
                  415-        DAREA  *37              14              3               2.6124929E-01           
                  416-        DAREA  *37              15              3               2.2699525E-01           
                  417-        DAREA  *37              16              3               1.9134172E-01           
                  418-        DAREA  *37              17              3               1.5450850E-01           
                  419-        DAREA  *37              18              3               1.1672269E-01           
                  420-        DAREA  *37              19              3               7.8217242E-02           
                  421-        DAREA  *37              20              3               3.9229557E-02           
                  422-        DAREA  *37              22              3               4.9845867E-01           
                  423-        DAREA  *37              23              3               9.9384417E-01           
1     FREQUENCY RESPONSE OF A 20X20 PLATE                                   /    95 SUN SOLARIS NASTRAN    / MAY 17, 95 / PAGE    15
      NASTRAN DEMONSTRATION PROBLEM NO. D08-01-2A                                                                                   

                                                                                                                                    

                                                  S O R T E D   B U L K    D A T A    E C H O                                       
                     CARD                                                                                                           
                     COUNT        ---1--- +++2+++ ---3--- +++4+++ ---5--- +++6+++ ---7--- +++8+++ ---9--- +++10+++                  
                  424-        DAREA  *37              24              3               9.8464362E-01           
                  425-        DAREA  *37              25              3               9.6937243E-01           
                  426-        DAREA  *37              26              3               9.4812473E-01           
                  427-        DAREA  *37              27              3               9.2103152E-01           
                  428-        DAREA  *37              28              3               8.8825985E-01           
                  429-        DAREA  *37              29              3               8.5001176E-01           
                  430-        DAREA  *37              30              3               8.0652306E-01           
                  431-        DAREA  *37              31              3               7.5806189E-01           
                  432-        DAREA  *37              32              3               7.0492700E-01           
                  433-        DAREA  *37              33              3               6.4744603E-01           
                  434-        DAREA  *37              34              3               5.8597331E-01           
                  435-        DAREA  *37              35              3               5.2088789E-01           
                  436-        DAREA  *37              36              3               4.5259101E-01           
                  437-        DAREA  *37              37              3               3.8150376E-01           
                  438-        DAREA  *37              38              3               3.0806441E-01           
                  439-        DAREA  *37              39              3               2.3272575E-01           
                  440-        DAREA  *37              40              3               1.5595225E-01           
                  441-        DAREA  *37              41              3               7.8217250E-02           
                  442-        DAREA  *37              43              3               4.9384417E-01           
                  443-        DAREA  *37              44              3               9.8464362E-01           
                  444-        DAREA  *37              45              3               9.7552826E-01           
                  445-        DAREA  *37              46              3               9.6039844E-01           
                  446-        DAREA  *37              47              3               9.3934743E-01           
                  447-        DAREA  *37              48              3               9.1250504E-01           
                  448-        DAREA  *37              49              3               8.8003676E-01           
                  449-        DAREA  *37              50              3               8.4214275E-01           
                  450-        DAREA  *37              51              3               7.9905665E-01           
                  451-        DAREA  *37              52              3               7.5104411E-01           
                  452-        DAREA  *37              53              3               6.9840112E-01           
                  453-        DAREA  *37              54              3               6.4145228E-01           
                  454-        DAREA  *37              55              3               5.8054864E-01           
                  455-        DAREA  *37              56              3               5.1606575E-01           
                  456-        DAREA  *37              57              3               4.4840113E-01           
                  457-        DAREA  *37              58              3               3.7797197E-01           
                  458-        DAREA  *37              59              3               3.0521249E-01           
                  459-        DAREA  *37              60              3               2.3057128E-01           
                  460-        DAREA  *37              61              3               1.5450851E-01           
                  461-        DAREA  *37              62              3               7.7493152E-02           
                  462-        DAREA  *37              64              3               4.8618496E-01           
                  463-        DAREA  *37              65              3               9.6937243E-01           
                  464-        DAREA  *37              66              3               9.6039844E-01           
                  465-        DAREA  *37              67              3               9.4550326E-01           
                  466-        DAREA  *37              68              3               9.2477875E-01           
                  467-        DAREA  *37              69              3               8.9835267E-01           
                  468-        DAREA  *37              70              3               8.6638795E-01           
                  469-        DAREA  *37              71              3               8.2908165E-01           
                  470-        DAREA  *37              72              3               7.8666379E-01           
1     FREQUENCY RESPONSE OF A 20X20 PLATE                                   /    95 SUN SOLARIS NASTRAN    / MAY 17, 95 / PAGE    16
      NASTRAN DEMONSTRATION PROBLEM NO. D08-01-2A                                                                                   

                                                                                                                                    

                                                  S O R T E D   B U L K    D A T A    E C H O                                       
                     CARD                                                                                                           
                     COUNT        ---1--- +++2+++ ---3--- +++4+++ ---5--- +++6+++ ---7--- +++8+++ ---9--- +++10+++                  
                  471-        DAREA  *37              73              3               7.3939589E-01           
                  472-        DAREA  *37              74              3               6.8756936E-01           
                  473-        DAREA  *37              75              3               6.3150375E-01           
                  474-        DAREA  *37              76              3               5.7154471E-01           
                  475-        DAREA  *37              77              3               5.0806190E-01           
                  476-        DAREA  *37              78              3               4.4144671E-01           
                  477-        DAREA  *37              79              3               3.7210987E-01           
                  478-        DAREA  *37              80              3               3.0047884E-01           
                  479-        DAREA  *37              81              3               2.2699527E-01           
                  480-        DAREA  *37              82              3               1.5211219E-01           
                  481-        DAREA  *37              83              3               7.6291282E-02           
                  482-        DAREA  *37              85              3               4.7552826E-01           
                  483-        DAREA  *37              86              3               9.4812473E-01           
                  484-        DAREA  *37              87              3               9.3934743E-01           
                  485-        DAREA  *37              88              3               9.2477875E-01           
                  486-        DAREA  *37              89              3               9.0450849E-01           
                  487-        DAREA  *37              90              3               8.7866165E-01           
                  488-        DAREA  *37              91              3               8.4739757E-01           
                  489-        DAREA  *37              92              3               8.1090898E-01           
                  490-        DAREA  *37              93              3               7.6942088E-01           
                  491-        DAREA  *37              94              3               7.2318906E-01           
                  492-        DAREA  *37              95              3               6.7249851E-01           
                  493-        DAREA  *37              96              3               6.1766180E-01           
                  494-        DAREA  *37              97              3               5.5901700E-01           
                  495-        DAREA  *37              98              3               4.9692567E-01           
                  496-        DAREA  *37              99              3               4.3177063E-01           
                  497-        DAREA  *37              100             3               3.6395358E-01           
                  498-        DAREA  *37              101             3               2.9389264E-01           
                  499-        DAREA  *37              102             3               2.2201975E-01           
                  500-        DAREA  *37              103             3               1.4877803E-01           
                  501-        DAREA  *37              104             3               7.4619051E-02           
                  502-        DAREA  *37              106             3               4.6193977E-01           
                  503-        DAREA  *37              107             3               9.2103152E-01           
                  504-        DAREA  *37              108             3               9.1250504E-01           
                  505-        DAREA  *37              109             3               8.9835267E-01           
                  506-        DAREA  *37              110             3               8.7866165E-01           
                  507-        DAREA  *37              111             3               8.5355339E-01           
                  508-        DAREA  *37              112             3               8.2318269E-01           
                  509-        DAREA  *37              113             3               7.8773680E-01           
                  510-        DAREA  *37              114             3               7.4743424E-01           
                  511-        DAREA  *37              115             3               7.0252351E-01           
                  512-        DAREA  *37              116             3               6.5328148E-01           
                  513-        DAREA  *37              117             3               6.0001177E-01           
                  514-        DAREA  *37              118             3               5.4304276E-01           
                  515-        DAREA  *37              119             3               4.8272574E-01           
                  516-        DAREA  *37              120             3               4.1943254E-01           
                  517-        DAREA  *37              121             3               3.5355340E-01           
1     FREQUENCY RESPONSE OF A 20X20 PLATE                                   /    95 SUN SOLARIS NASTRAN    / MAY 17, 95 / PAGE    17
      NASTRAN DEMONSTRATION PROBLEM NO. D08-01-2A                                                                                   

                                                                                                                                    

                                                  S O R T E D   B U L K    D A T A    E C H O                                       
                     CARD                                                                                                           
                     COUNT        ---1--- +++2+++ ---3--- +++4+++ ---5--- +++6+++ ---7--- +++8+++ ---9--- +++10+++                  
                  518-        DAREA  *37              122             3               2.8549449E-01           
                  519-        DAREA  *37              123             3               2.1567541E-01           
                  520-        DAREA  *37              124             3               1.4452662E-01           
                  521-        DAREA  *37              125             3               7.2486769E-02           
                  522-        DAREA  *37              127             3               4.4550326E-01           
                  523-        DAREA  *37              128             3               8.8825985E-01           
                  524-        DAREA  *37              129             3               8.8003676E-01           
                  525-        DAREA  *37              130             3               8.6638795E-01           
                  526-        DAREA  *37              131             3               8.4739757E-01           
                  527-        DAREA  *37              132             3               8.2318269E-01           
                  528-        DAREA  *37              133             3               7.9389263E-01           
                  529-        DAREA  *37              134             3               7.5970795E-01           
                  530-        DAREA  *37              135             3               7.2083942E-01           
                  531-        DAREA  *37              136             3               6.7752668E-01           
                  532-        DAREA  *37              137             3               6.3003676E-01           
                  533-        DAREA  *37              138             3               5.7866246E-01           
                  534-        DAREA  *37              139             3               5.2372050E-01           
                  535-        DAREA  *37              140             3               4.6554964E-01           
                  536-        DAREA  *37              141             3               4.0450851E-01           
                  537-        DAREA  *37              142             3               3.4097344E-01           
                  538-        DAREA  *37              143             3               2.7533617E-01           
                  539-        DAREA  *37              144             3               2.0800136E-01           
                  540-        DAREA  *37              145             3               1.3938414E-01           
                  541-        DAREA  *37              146             3               6.9907582E-02           
                  542-        DAREA  *37              148             3               4.2632008E-01           
                  543-        DAREA  *37              149             3               8.5001176E-01           
                  544-        DAREA  *37              150             3               8.4214275E-01           
                  545-        DAREA  *37              151             3               8.2908165E-01           
                  546-        DAREA  *37              152             3               8.1090898E-01           
                  547-        DAREA  *37              153             3               7.8773680E-01           
                  548-        DAREA  *37              154             3               7.5970795E-01           
                  549-        DAREA  *37              155             3               7.2699525E-01           
                  550-        DAREA  *37              156             3               6.8980038E-01           
                  551-        DAREA  *37              157             3               6.4835268E-01           
                  552-        DAREA  *37              158             3               6.0290764E-01           
                  553-        DAREA  *37              159             3               5.5374550E-01           
                  554-        DAREA  *37              160             3               5.0116932E-01           
                  555-        DAREA  *37              161             3               4.4550327E-01           
                  556-        DAREA  *37              162             3               3.8709054E-01           
                  557-        DAREA  *37              163             3               3.2629127E-01           
                  558-        DAREA  *37              164             3               2.6348031E-01           
                  559-        DAREA  *37              165             3               1.9904491E-01           
                  560-        DAREA  *37              166             3               1.3338232E-01           
                  561-        DAREA  *37              167             3               6.6897391E-02           
                  562-        DAREA  *37              169             3               4.0450850E-01           
                  563-        DAREA  *37              170             3               8.0652306E-01           
                  564-        DAREA  *37              171             3               7.9905665E-01           
1     FREQUENCY RESPONSE OF A 20X20 PLATE                                   /    95 SUN SOLARIS NASTRAN    / MAY 17, 95 / PAGE    18
      NASTRAN DEMONSTRATION PROBLEM NO. D08-01-2A                                                                                   

                                                                                                                                    

                                                  S O R T E D   B U L K    D A T A    E C H O                                       
[...]
                             0.0            0.0            0.0            0.0            0.0            0.0                         
0  8.000000E+00     G      0.0            0.0            3.790555E-04   0.0            8.193418E-05   0.0                           
                             0.0            0.0            0.0            0.0            0.0            0.0                         
0  9.000000E+00     G      0.0            0.0            7.369437E-04   0.0            1.592930E-04   0.0                           
                             0.0            0.0            0.0            0.0            0.0            0.0                         
0  1.000000E+01     G      0.0            0.0            1.930551E-01   0.0            4.172954E-02   0.0                           
                             0.0            0.0          180.0000         0.0          180.0000         0.0                         
0  1.100000E+01     G      0.0            0.0            6.931003E-04   0.0            1.498161E-04   0.0                           
                             0.0            0.0          180.0000         0.0          180.0000         0.0                         
1     FREQUENCY RESPONSE OF A 20X20 PLATE                                   /    95 SUN SOLARIS NASTRAN    / MAY 17, 95 / PAGE    49
      NASTRAN DEMONSTRATION PROBLEM NO. D08-01-2A                                                                                   
0                                                                                                                                   
      POINT-ID =      21
                                       C O M P L E X   D I S P L A C E M E N T   V E C T O R
                                                         (MAGNITUDE/PHASE)
 
      FREQUENCY   TYPE          T1             T2             T3             R1             R2             R3
0  0.0              G      0.0            0.0            0.0            0.0            2.936409E-05   0.0                           
                             0.0            0.0            0.0            0.0            0.0            0.0                         
0  8.000000E+00     G      0.0            0.0            0.0            0.0            1.012762E-04   0.0                           
                             0.0            0.0            0.0            0.0            0.0            0.0                         
0  9.000000E+00     G      0.0            0.0            0.0            0.0            1.968969E-04   0.0                           
                             0.0            0.0            0.0            0.0            0.0            0.0                         
0  1.000000E+01     G      0.0            0.0            0.0            0.0            5.158055E-02   0.0                           
                             0.0            0.0            0.0            0.0          180.0000         0.0                         
0  1.100000E+01     G      0.0            0.0            0.0            0.0            1.851828E-04   0.0                           
                             0.0            0.0            0.0            0.0          180.0000         0.0                         
1     FREQUENCY RESPONSE OF A 20X20 PLATE                                   /    95 SUN SOLARIS NASTRAN    / MAY 17, 95 / PAGE    50
      NASTRAN DEMONSTRATION PROBLEM NO. D08-01-2A                                                                                   
0                                                                                                                                   
      POINT-ID =     169
                                       C O M P L E X   D I S P L A C E M E N T   V E C T O R
                                                         (MAGNITUDE/PHASE)
 
      FREQUENCY   TYPE          T1             T2             T3             R1             R2             R3
0  0.0              G      0.0            0.0            1.512693E-04   1.725978E-05   0.0            0.0                           
                             0.0            0.0            0.0          180.0000         0.0            0.0                         
0  8.000000E+00     G      0.0            0.0            5.217251E-04   5.952867E-05   0.0            0.0                           
                             0.0            0.0            0.0          180.0000         0.0            0.0                         
0  9.000000E+00     G      0.0            0.0            1.014316E-03   1.157331E-04   0.0            0.0                           
                             0.0            0.0            0.0          180.0000         0.0            0.0                         
0  1.000000E+01     G      0.0            0.0            2.657176E-01   3.031829E-02   0.0            0.0                           
                             0.0            0.0          180.0000         0.0            0.0            0.0                         
0  1.100000E+01     G      0.0            0.0            9.539707E-04   1.088477E-04   0.0            0.0                           
                             0.0            0.0          180.0000         0.0            0.0            0.0                         
1     FREQUENCY RESPONSE OF A 20X20 PLATE                                   /    95 SUN SOLARIS NASTRAN    / MAY 17, 95 / PAGE    51
      NASTRAN DEMONSTRATION PROBLEM NO. D08-01-2A                                                                                   
0                                                                                                                                   
      POINT-ID =     189
                                       C O M P L E X   D I S P L A C E M E N T   V E C T O R
                                                         (MAGNITUDE/PHASE)
 
      FREQUENCY   TYPE          T1             T2             T3             R1             R2             R3
0  0.0              G      0.0            0.0            0.0            0.0            2.375605E-05   0.0                           
                             0.0            0.0            0.0            0.0            0.0            0.0                         
0  8.000000E+00     G      0.0            0.0            0.0            0.0            8.193418E-05   0.0                           
                             0.0            0.0            0.0            0.0            0.0            0.0                         
0  9.000000E+00     G      0.0            0.0            0.0            0.0            1.592930E-04   0.0                           
                             0.0            0.0            0.0            0.0            0.0            0.0                         
0  1.000000E+01     G      0.0            0.0            0.0            0.0            4.172954E-02   0.0                           
                             0.0            0.0            0.0            0.0          180.0000         0.0                         
0  1.100000E+01     G      0.0            0.0            0.0            0.0            1.498161E-04   0.0                           
                             0.0            0.0            0.0            0.0          180.0000         0.0                         
1     FREQUENCY RESPONSE OF A 20X20 PLATE                                   /    95 SUN SOLARIS NASTRAN    / MAY 17, 95 / PAGE    52
      NASTRAN DEMONSTRATION PROBLEM NO. D08-01-2A                                                                                   
0                                                                                                                                   
      POINT-ID =     295
                                       C O M P L E X   D I S P L A C E M E N T   V E C T O R
                                                         (MAGNITUDE/PHASE)
 
      FREQUENCY   TYPE          T1             T2             T3             R1             R2             R3
0  0.0              G      0.0            0.0            8.488676E-05   2.616359E-05   0.0            0.0                           
                             0.0            0.0            0.0          180.0000         0.0            0.0                         
0  8.000000E+00     G      0.0            0.0            2.927729E-04   9.023777E-05   0.0            0.0                           
                             0.0            0.0            0.0          180.0000         0.0            0.0                         
0  9.000000E+00     G      0.0            0.0            5.691967E-04   1.754364E-04   0.0            0.0                           
                             0.0            0.0            0.0          180.0000         0.0            0.0                         
0  1.000000E+01     G      0.0            0.0            1.491109E-01   4.595860E-02   0.0            0.0                           
                             0.0            0.0          180.0000         0.0            0.0            0.0                         
0  1.100000E+01     G      0.0            0.0            5.353331E-04   1.649991E-04   0.0            0.0                           
                             0.0            0.0          180.0000         0.0            0.0            0.0                         
1     FREQUENCY RESPONSE OF A 20X20 PLATE                                   /    95 SUN SOLARIS NASTRAN    / MAY 17, 95 / PAGE    53
      NASTRAN DEMONSTRATION PROBLEM NO. D08-01-2A                                                                                   
0                                                                                                                                   
      POINT-ID =     315
                                       C O M P L E X   D I S P L A C E M E N T   V E C T O R
                                                         (MAGNITUDE/PHASE)
 
      FREQUENCY   TYPE          T1             T2             T3             R1             R2             R3
0  0.0              G      0.0            0.0            0.0            0.0            1.333102E-05   0.0                           
                             0.0            0.0            0.0            0.0            0.0            0.0                         
0  8.000000E+00     G      0.0            0.0            0.0            0.0            4.597844E-05   0.0                           
                             0.0            0.0            0.0            0.0            0.0            0.0                         
0  9.000000E+00     G      0.0            0.0            0.0            0.0            8.938934E-05   0.0                           
                             0.0            0.0            0.0            0.0            0.0            0.0                         
0  1.000000E+01     G      0.0            0.0            0.0            0.0            2.341708E-02   0.0                           
                             0.0            0.0            0.0            0.0          180.0000         0.0                         
0  1.100000E+01     G      0.0            0.0            0.0            0.0            8.407125E-05   0.0                           
                             0.0            0.0            0.0            0.0          180.0000         0.0                         
1     FREQUENCY RESPONSE OF A 20X20 PLATE                                   /    95 SUN SOLARIS NASTRAN    / MAY 17, 95 / PAGE    54
      NASTRAN DEMONSTRATION PROBLEM NO. D08-01-2A                                                                                   
0                                                                                                                                   
      POINT-ID =     421
                                       C O M P L E X   D I S P L A C E M E N T   V E C T O R
                                                         (MAGNITUDE/PHASE)
 
      FREQUENCY   TYPE          T1             T2             T3             R1             R2             R3
0  0.0              G      0.0            0.0            0.0            2.936409E-05   0.0            0.0                           
                             0.0            0.0            0.0          180.0000         0.0            0.0                         
0  8.000000E+00     G      0.0            0.0            0.0            1.012762E-04   0.0            0.0                           
                             0.0            0.0            0.0          180.0000         0.0            0.0                         
0  9.000000E+00     G      0.0            0.0            0.0            1.968969E-04   0.0            0.0                           
                             0.0            0.0            0.0          180.0000         0.0            0.0                         
0  1.000000E+01     G      0.0            0.0            0.0            5.158055E-02   0.0            0.0                           
                             0.0            0.0            0.0            0.0            0.0            0.0                         
0  1.100000E+01     G      0.0            0.0            0.0            1.851828E-04   0.0            0.0                           
                             0.0            0.0            0.0            0.0            0.0            0.0                         
1     FREQUENCY RESPONSE OF A 20X20 PLATE                                   /    95 SUN SOLARIS NASTRAN    / MAY 17, 95 / PAGE    55
      NASTRAN DEMONSTRATION PROBLEM NO. D08-01-2A                                                                                   
0                                                                                                                                   
      POINT-ID =     427
                                       C O M P L E X   D I S P L A C E M E N T   V E C T O R
                                                         (MAGNITUDE/PHASE)
 
      FREQUENCY   TYPE          T1             T2             T3             R1             R2             R3
0  0.0              G      0.0            0.0            0.0            2.616359E-05   0.0            0.0                           
                             0.0            0.0            0.0          180.0000         0.0            0.0                         
0  8.000000E+00     G      0.0            0.0            0.0            9.023777E-05   0.0            0.0                           
                             0.0            0.0            0.0          180.0000         0.0            0.0                         
0  9.000000E+00     G      0.0            0.0            0.0            1.754364E-04   0.0            0.0                           
                             0.0            0.0            0.0          180.0000         0.0            0.0                         
0  1.000000E+01     G      0.0            0.0            0.0            4.595860E-02   0.0            0.0                           
                             0.0            0.0            0.0            0.0            0.0            0.0                         
0  1.100000E+01     G      0.0            0.0            0.0            1.649991E-04   0.0            0.0                           
                             0.0            0.0            0.0            0.0            0.0            0.0                         
1     FREQUENCY RESPONSE OF A 20X20 PLATE                                   /    95 SUN SOLARIS NASTRAN    / MAY 17, 95 / PAGE    56
      NASTRAN DEMONSTRATION PROBLEM NO. D08-01-2A                                                                                   
0                                                                                                                                   
      POINT-ID =     433
                                       C O M P L E X   D I S P L A C E M E N T   V E C T O R
                                                         (MAGNITUDE/PHASE)
 
      FREQUENCY   TYPE          T1             T2             T3             R1             R2             R3
0  0.0              G      0.0            0.0            0.0            1.725978E-05   0.0            0.0                           
                             0.0            0.0            0.0          180.0000         0.0            0.0                         
0  8.000000E+00     G      0.0            0.0            0.0            5.952867E-05   0.0            0.0                           
                             0.0            0.0            0.0          180.0000         0.0            0.0                         
0  9.000000E+00     G      0.0            0.0            0.0            1.157331E-04   0.0            0.0                           
                             0.0            0.0            0.0          180.0000         0.0            0.0                         
0  1.000000E+01     G      0.0            0.0            0.0            3.031829E-02   0.0            0.0                           
                             0.0            0.0            0.0            0.0            0.0            0.0                         
0  1.100000E+01     G      0.0            0.0            0.0            1.088477E-04   0.0            0.0                           
                             0.0            0.0            0.0            0.0            0.0            0.0                         
1     FREQUENCY RESPONSE OF A 20X20 PLATE                                   /    95 SUN SOLARIS NASTRAN    / MAY 17, 95 / PAGE    57
      NASTRAN DEMONSTRATION PROBLEM NO. D08-01-2A                                                                                   
0                                                                                                                                   
      POINT-ID =     441
                                       C O M P L E X   D I S P L A C E M E N T   V E C T O R
                                                         (MAGNITUDE/PHASE)
 
      FREQUENCY   TYPE          T1             T2             T3             R1             R2             R3
0  0.0              G      0.0            0.0            0.0            0.0            0.0            0.0                           
                             0.0            0.0            0.0            0.0            0.0            0.0                         
0  8.000000E+00     G      0.0            0.0            0.0            0.0            0.0            0.0                           
                             0.0            0.0            0.0            0.0            0.0            0.0                         
0  9.000000E+00     G      0.0            0.0            0.0            0.0            0.0            0.0                           
                             0.0            0.0            0.0            0.0            0.0            0.0                         
0  1.000000E+01     G      0.0            0.0            0.0            0.0            0.0            0.0                           
                             0.0            0.0            0.0            0.0            0.0            0.0                         
0  1.100000E+01     G      0.0            0.0            0.0            0.0            0.0            0.0                           
                             0.0            0.0            0.0            0.0            0.0            0.0                         




                                        * * * END OF JOB * * *
1
 JOB TITLE =  FREQUENCY RESPONSE OF A 20X20 PLATE                                
 DATE:  5/17/95
 END TIME: 16: 1:45
 TOTAL WALL CLOCK TIME      3 SEC.
 
