





                                  ****
                                *      *
                               *        *
                               *  N A S T R A N
                               *        *
                                *      *
                                  ****


                             SUN COMPUTER SYSTEMS    
                                SOLARIS VERSION

                          SYSTEM RELEASE -  1995 ED.

                                DISTRIBUTED BY

         COMPUTER SOFTWARE MANAGEMENT AND INFORMATION CENTER (COSMIC)
                 UNIVERSITY OF GEORGIA, ATHENS, GEORGIA 30602
                 PHONE: (706)542-3265      FAX: (706)542-4807
1                                                                           /    95 SUN SOLARIS NASTRAN    / MAY 17, 95 / PAGE     2
                                                                                                                                    
0                                                                                                                                   
                                                                                                         
                                                                                                         
                         INSTALLATION CENTER USER INFORMATION GIVEN IN THIS SECTION                      
                                                                                                         
                                     *********************************************                       
                                     *                                           *                       
                                     *  PLEASE READ THE COMMENT IN DEMO PROBLEM  *                       
                                     *  D01002A ABOUT SYSTEM TIMING CONSTANTS    *                       
                                     *                                           *                       
                                     *********************************************                       
                                                                                                         
                         ===X=    TOP OF PAGE REQUEST IF 'X' IS REPLACED BY '='                          
                                                                                                         
1                                                                           /    95 SUN SOLARIS NASTRAN    / MAY 17, 95 / PAGE     3
                                                                                                                                    
0                                                                                                                                   
0*** USER INFORMATION MESSAGE 225, GINO TIME CONSTANTS ARE BEING COMPUTED
     (SEE NASINFO FILE FOR ELIMINATION OF THESE COMPUTATIONS)
1                                                                           /    95 SUN SOLARIS NASTRAN    / MAY 17, 95 / PAGE     4
                                                                                                                                    
0        N A S T R A N    E X E C U T I V E    C O N T R O L    D E C K    E C H O                                                  
0                                                                                                                                   
                                                                                                                                    
                                                                                                                                    
     ID    D08011A,NASTRAN                                                           
     APP   DISPLACEMENT                                                              
     SOL   8,1                                                                       
     TIME  12                                                                        
     CEND                                                                            


0*** USER INFORMATION MESSAGE, TURN DIAG 48 ON FOR NASTRAN RELEASE NEWS, DIAG DEFINITION, NEW DMAP
         MODULES AND NEW BULKDATA CARDS INFORMATION
1     FREQUENCY RESPONSE OF A 10X10 PLATE                                   /    95 SUN SOLARIS NASTRAN    / MAY 17, 95 / PAGE     5
      NASTRAN DEMONSTRATION PROBLEM NO. D08-01-1A                                                                                   
0                                                                                                                                   
0                                        C A S E    C O N T R O L   D E C K   E C H O                                               
                 CARD                                                                                                               
                 COUNT                                                                                                              
                  1      TITLE    = FREQUENCY RESPONSE OF A 10X10 PLATE                                  
                  2      SUBTITLE = NASTRAN DEMONSTRATION PROBLEM NO. D08-01-1A                          
                  3           SPC = 37                                                                   
                  4         DLOAD = 8                                                                    
                  5      FREQUENCY= 8                                                                    
                  6      OUTPUT                                                                          
                  7         SET 1 = 1,4,7,11  45,55,  78,88,  111,114,117,121                            
                  8         DISPLACEMENT(SORT2,PHASE) = 1                                                
                  9         SPCFORCE(SORT2,PHASE) = 1                                                    
                 10      BEGIN BULK                                                                      


                        (NO. OF UNSORTED BULK DATA CARDS READ =   337, INCLUDING   0 COMMENT CARDS)
0*** USER INFORMATION MESSAGE 207, BULK DATA DECK IS NOT SORTED. NASTRAN WILL RE-ORDER THE INPUT DECK.
1     FREQUENCY RESPONSE OF A 10X10 PLATE                                   /    95 SUN SOLARIS NASTRAN    / MAY 17, 95 / PAGE     6
      NASTRAN DEMONSTRATION PROBLEM NO. D08-01-1A                                                                                   
0                                                                                                                                   
0                                                 S O R T E D   B U L K    D A T A    E C H O                                       
                     CARD                                                                                                           
                     COUNT        ---1--- +++2+++ ---3--- +++4+++ ---5--- +++6+++ ---7--- +++8+++ ---9--- +++10+++                  
                    1-        CNGRNT  1       2       THRU    109                                             
                    2-        CQUAD1  1       23      1       2       13      12      .00                     
                    3-        CQUAD1  2       23      2       3       14      13      .00                     
                    4-        CQUAD1  3       23      3       4       15      14      .00                     
                    5-        CQUAD1  4       23      4       5       16      15      .00                     
                    6-        CQUAD1  5       23      5       6       17      16      .00                     
                    7-        CQUAD1  6       23      6       7       18      17      .00                     
                    8-        CQUAD1  7       23      7       8       19      18      .00                     
                    9-        CQUAD1  8       23      8       9       20      19      .00                     
                   10-        CQUAD1  9       23      9       10      21      20      .00                     
                   11-        CQUAD1  10      23      10      11      22      21      .00                     
                   12-        CQUAD1  12      23      12      13      24      23      .00                     
                   13-        CQUAD1  13      23      13      14      25      24      .00                     
                   14-        CQUAD1  14      23      14      15      26      25      .00                     
                   15-        CQUAD1  15      23      15      16      27      26      .00                     
                   16-        CQUAD1  16      23      16      17      28      27      .00                     
                   17-        CQUAD1  17      23      17      18      29      28      .00                     
                   18-        CQUAD1  18      23      18      19      30      29      .00                     
                   19-        CQUAD1  19      23      19      20      31      30      .00                     
                   20-        CQUAD1  20      23      20      21      32      31      .00                     
                   21-        CQUAD1  21      23      21      22      33      32      .00                     
                   22-        CQUAD1  23      23      23      24      35      34      .00                     
                   23-        CQUAD1  24      23      24      25      36      35      .00                     
                   24-        CQUAD1  25      23      25      26      37      36      .00                     
                   25-        CQUAD1  26      23      26      27      38      37      .00                     
                   26-        CQUAD1  27      23      27      28      39      38      .00                     
                   27-        CQUAD1  28      23      28      29      40      39      .00                     
                   28-        CQUAD1  29      23      29      30      41      40      .00                     
                   29-        CQUAD1  30      23      30      31      42      41      .00                     
                   30-        CQUAD1  31      23      31      32      43      42      .00                     
                   31-        CQUAD1  32      23      32      33      44      43      .00                     
                   32-        CQUAD1  34      23      34      35      46      45      .00                     
                   33-        CQUAD1  35      23      35      36      47      46      .00                     
                   34-        CQUAD1  36      23      36      37      48      47      .00                     
                   35-        CQUAD1  37      23      37      38      49      48      .00                     
                   36-        CQUAD1  38      23      38      39      50      49      .00                     
                   37-        CQUAD1  39      23      39      40      51      50      .00                     
                   38-        CQUAD1  40      23      40      41      52      51      .00                     
                   39-        CQUAD1  41      23      41      42      53      52      .00                     
                   40-        CQUAD1  42      23      42      43      54      53      .00                     
                   41-        CQUAD1  43      23      43      44      55      54      .00                     
                   42-        CQUAD1  45      23      45      46      57      56      .00                     
                   43-        CQUAD1  46      23      46      47      58      57      .00                     
                   44-        CQUAD1  47      23      47      48      59      58      .00                     
                   45-        CQUAD1  48      23      48      49      60      59      .00                     
                   46-        CQUAD1  49      23      49      50      61      60      .00                     
                   47-        CQUAD1  50      23      50      51      62      61      .00                     
1     FREQUENCY RESPONSE OF A 10X10 PLATE                                   /    95 SUN SOLARIS NASTRAN    / MAY 17, 95 / PAGE     7
      NASTRAN DEMONSTRATION PROBLEM NO. D08-01-1A                                                                                   

                                                                                                                                    

                                                  S O R T E D   B U L K    D A T A    E C H O                                       
                     CARD                                                                                                           
                     COUNT        ---1--- +++2+++ ---3--- +++4+++ ---5--- +++6+++ ---7--- +++8+++ ---9--- +++10+++                  
                   48-        CQUAD1  51      23      51      52      63      62      .00                     
                   49-        CQUAD1  52      23      52      53      64      63      .00                     
                   50-        CQUAD1  53      23      53      54      65      64      .00                     
                   51-        CQUAD1  54      23      54      55      66      65      .00                     
                   52-        CQUAD1  56      23      56      57      68      67      .00                     
                   53-        CQUAD1  57      23      57      58      69      68      .00                     
                   54-        CQUAD1  58      23      58      59      70      69      .00                     
                   55-        CQUAD1  59      23      59      60      71      70      .00                     
                   56-        CQUAD1  60      23      60      61      72      71      .00                     
                   57-        CQUAD1  61      23      61      62      73      72      .00                     
                   58-        CQUAD1  62      23      62      63      74      73      .00                     
                   59-        CQUAD1  63      23      63      64      75      74      .00                     
                   60-        CQUAD1  64      23      64      65      76      75      .00                     
                   61-        CQUAD1  65      23      65      66      77      76      .00                     
                   62-        CQUAD1  67      23      67      68      79      78      .00                     
                   63-        CQUAD1  68      23      68      69      80      79      .00                     
                   64-        CQUAD1  69      23      69      70      81      80      .00                     
                   65-        CQUAD1  70      23      70      71      82      81      .00                     
                   66-        CQUAD1  71      23      71      72      83      82      .00                     
                   67-        CQUAD1  72      23      72      73      84      83      .00                     
                   68-        CQUAD1  73      23      73      74      85      84      .00                     
                   69-        CQUAD1  74      23      74      75      86      85      .00                     
                   70-        CQUAD1  75      23      75      76      87      86      .00                     
                   71-        CQUAD1  76      23      76      77      88      87      .00                     
                   72-        CQUAD1  78      23      78      79      90      89      .00                     
                   73-        CQUAD1  79      23      79      80      91      90      .00                     
                   74-        CQUAD1  80      23      80      81      92      91      .00                     
                   75-        CQUAD1  81      23      81      82      93      92      .00                     
                   76-        CQUAD1  82      23      82      83      94      93      .00                     
                   77-        CQUAD1  83      23      83      84      95      94      .00                     
                   78-        CQUAD1  84      23      84      85      96      95      .00                     
                   79-        CQUAD1  85      23      85      86      97      96      .00                     
                   80-        CQUAD1  86      23      86      87      98      97      .00                     
                   81-        CQUAD1  87      23      87      88      99      98      .00                     
                   82-        CQUAD1  89      23      89      90      101     100     .00                     
                   83-        CQUAD1  90      23      90      91      102     101     .00                     
                   84-        CQUAD1  91      23      91      92      103     102     .00                     
                   85-        CQUAD1  92      23      92      93      104     103     .00                     
                   86-        CQUAD1  93      23      93      94      105     104     .00                     
                   87-        CQUAD1  94      23      94      95      106     105     .00                     
                   88-        CQUAD1  95      23      95      96      107     106     .00                     
                   89-        CQUAD1  96      23      96      97      108     107     .00                     
                   90-        CQUAD1  97      23      97      98      109     108     .00                     
                   91-        CQUAD1  98      23      98      99      110     109     .00                     
                   92-        CQUAD1  100     23      100     101     112     111     .00                     
                   93-        CQUAD1  101     23      101     102     113     112     .00                     
                   94-        CQUAD1  102     23      102     103     114     113     .00                     
1     FREQUENCY RESPONSE OF A 10X10 PLATE                                   /    95 SUN SOLARIS NASTRAN    / MAY 17, 95 / PAGE     8
      NASTRAN DEMONSTRATION PROBLEM NO. D08-01-1A                                                                                   

                                                                                                                                    

                                                  S O R T E D   B U L K    D A T A    E C H O                                       
                     CARD                                                                                                           
                     COUNT        ---1--- +++2+++ ---3--- +++4+++ ---5--- +++6+++ ---7--- +++8+++ ---9--- +++10+++                  
                   95-        CQUAD1  103     23      103     104     115     114     .00                     
                   96-        CQUAD1  104     23      104     105     116     115     .00                     
                   97-        CQUAD1  105     23      105     106     117     116     .00                     
                   98-        CQUAD1  106     23      106     107     118     117     .00                     
                   99-        CQUAD1  107     23      107     108     119     118     .00                     
                  100-        CQUAD1  108     23      108     109     120     119     .00                     
                  101-        CQUAD1  109     23      109     110     121     120     .00                     
                  102-        DAREA  *37              1               3               2.5000000E-01           
                  103-        DAREA  *37              2               3               4.9384417E-01           
                  104-        DAREA  *37              3               3               4.7552826E-01           
                  105-        DAREA  *37              4               3               4.4550326E-01           
                  106-        DAREA  *37              5               3               4.0450850E-01           
                  107-        DAREA  *37              6               3               3.5355339E-01           
                  108-        DAREA  *37              7               3               2.9389263E-01           
                  109-        DAREA  *37              8               3               2.2699525E-01           
                  110-        DAREA  *37              9               3               1.5450850E-01           
                  111-        DAREA  *37              10              3               7.8217242E-02           
                  112-        DAREA  *37              12              3               4.9384417E-01           
                  113-        DAREA  *37              13              3               9.7552826E-01           
                  114-        DAREA  *37              14              3               9.3934743E-01           
                  115-        DAREA  *37              15              3               8.8003676E-01           
                  116-        DAREA  *37              16              3               7.9905665E-01           
                  117-        DAREA  *37              17              3               6.9840112E-01           
                  118-        DAREA  *37              18              3               5.8054864E-01           
                  119-        DAREA  *37              19              3               4.4840113E-01           
                  120-        DAREA  *37              20              3               3.0521249E-01           
                  121-        DAREA  *37              21              3               1.5450851E-01           
                  122-        DAREA  *37              23              3               4.7552826E-01           
                  123-        DAREA  *37              24              3               9.3934743E-01           
                  124-        DAREA  *37              25              3               9.0450849E-01           
                  125-        DAREA  *37              26              3               8.4739757E-01           
                  126-        DAREA  *37              27              3               7.6942088E-01           
                  127-        DAREA  *37              28              3               6.7249851E-01           
                  128-        DAREA  *37              29              3               5.5901700E-01           
                  129-        DAREA  *37              30              3               4.3177063E-01           
                  130-        DAREA  *37              31              3               2.9389264E-01           
                  131-        DAREA  *37              32              3               1.4877803E-01           
                  132-        DAREA  *37              34              3               4.4550326E-01           
                  133-        DAREA  *37              35              3               8.8003676E-01           
                  134-        DAREA  *37              36              3               8.4739757E-01           
                  135-        DAREA  *37              37              3               7.9389263E-01           
                  136-        DAREA  *37              38              3               7.2083942E-01           
                  137-        DAREA  *37              39              3               6.3003676E-01           
                  138-        DAREA  *37              40              3               5.2372050E-01           
                  139-        DAREA  *37              41              3               4.0450851E-01           
                  140-        DAREA  *37              42              3               2.7533617E-01           
                  141-        DAREA  *37              43              3               1.3938414E-01           
1     FREQUENCY RESPONSE OF A 10X10 PLATE                                   /    95 SUN SOLARIS NASTRAN    / MAY 17, 95 / PAGE     9
      NASTRAN DEMONSTRATION PROBLEM NO. D08-01-1A                                                                                   

                                                                                                                                    

                                                  S O R T E D   B U L K    D A T A    E C H O                                       
                     CARD                                                                                                           
                     COUNT        ---1--- +++2+++ ---3--- +++4+++ ---5--- +++6+++ ---7--- +++8+++ ---9--- +++10+++                  
                  142-        DAREA  *37              45              3               4.0450850E-01           
                  143-        DAREA  *37              46              3               7.9905665E-01           
                  144-        DAREA  *37              47              3               7.6942088E-01           
                  145-        DAREA  *37              48              3               7.2083942E-01           
                  146-        DAREA  *37              49              3               6.5450849E-01           
                  147-        DAREA  *37              50              3               5.7206140E-01           
                  148-        DAREA  *37              51              3               4.7552826E-01           
                  149-        DAREA  *37              52              3               3.6728603E-01           
                  150-        DAREA  *37              53              3               2.5000001E-01           
                  151-        DAREA  *37              54              3               1.2655815E-01           
                  152-        DAREA  *37              56              3               3.5355339E-01           
                  153-        DAREA  *37              57              3               6.9840112E-01           
                  154-        DAREA  *37              58              3               6.7249851E-01           
                  155-        DAREA  *37              59              3               6.3003676E-01           
                  156-        DAREA  *37              60              3               5.7206140E-01           
                  157-        DAREA  *37              61              3               5.0000000E-01           
                  158-        DAREA  *37              62              3               4.1562694E-01           
                  159-        DAREA  *37              63              3               3.2101976E-01           
                  160-        DAREA  *37              64              3               2.1850802E-01           
                  161-        DAREA  *37              65              3               1.1061588E-01           
                  162-        DAREA  *37              67              3               2.9389263E-01           
                  163-        DAREA  *37              68              3               5.8054864E-01           
                  164-        DAREA  *37              69              3               5.5901700E-01           
                  165-        DAREA  *37              70              3               5.2372050E-01           
                  166-        DAREA  *37              71              3               4.7552826E-01           
                  167-        DAREA  *37              72              3               4.1562694E-01           
                  168-        DAREA  *37              73              3               3.4549151E-01           
                  169-        DAREA  *37              74              3               2.6684893E-01           
                  170-        DAREA  *37              75              3               1.8163564E-01           
                  171-        DAREA  *37              76              3               9.1949883E-02           
                  172-        DAREA  *37              78              3               2.2699525E-01           
                  173-        DAREA  *37              79              3               4.4840113E-01           
                  174-        DAREA  *37              80              3               4.3177063E-01           
                  175-        DAREA  *37              81              3               4.0450851E-01           
                  176-        DAREA  *37              82              3               3.6728603E-01           
                  177-        DAREA  *37              83              3               3.2101976E-01           
                  178-        DAREA  *37              84              3               2.6684893E-01           
                  179-        DAREA  *37              85              3               2.0610738E-01           
                  180-        DAREA  *37              86              3               1.4029079E-01           
                  181-        DAREA  *37              87              3               7.1019771E-02           
                  182-        DAREA  *37              89              3               1.5450850E-01           
                  183-        DAREA  *37              90              3               3.0521249E-01           
                  184-        DAREA  *37              91              3               2.9389264E-01           
                  185-        DAREA  *37              92              3               2.7533617E-01           
                  186-        DAREA  *37              93              3               2.5000001E-01           
                  187-        DAREA  *37              94              3               2.1850802E-01           
                  188-        DAREA  *37              95              3               1.8163564E-01           
1     FREQUENCY RESPONSE OF A 10X10 PLATE                                   /    95 SUN SOLARIS NASTRAN    / MAY 17, 95 / PAGE    10
      NASTRAN DEMONSTRATION PROBLEM NO. D08-01-1A                                                                                   

                                                                                                                                    

                                                  S O R T E D   B U L K    D A T A    E C H O                                       
                     CARD                                                                                                           
                     COUNT        ---1--- +++2+++ ---3--- +++4+++ ---5--- +++6+++ ---7--- +++8+++ ---9--- +++10+++                  
                  189-        DAREA  *37              96              3               1.4029079E-01           
                  190-        DAREA  *37              97              3               9.5491510E-02           
                  191-        DAREA  *37              98              3               4.8340916E-02           
                  192-        DAREA  *37              100             3               7.8217242E-02           
                  193-        DAREA  *37              101             3               1.5450851E-01           
                  194-        DAREA  *37              102             3               1.4877803E-01           
                  195-        DAREA  *37              103             3               1.3938414E-01           
                  196-        DAREA  *37              104             3               1.2655815E-01           
                  197-        DAREA  *37              105             3               1.1061588E-01           
                  198-        DAREA  *37              106             3               9.1949883E-02           
                  199-        DAREA  *37              107             3               7.1019771E-02           
                  200-        DAREA  *37              108             3               4.8340916E-02           
                  201-        DAREA  *37              109             3               2.4471748E-02           
                  202-        FREQ    8       .0      8.0     9.0     10.0    11.0                            
                  203-        GRDSET                                                  126                     
                  204-        GRID    1               .0      .0      .0                                      
                  205-        GRID    2               1.0     .0      .0                                      
                  206-        GRID    3               2.0     .0      .0                                      
                  207-        GRID    4               3.0     .0      .0                                      
                  208-        GRID    5               4.0     .0      .0                                      
                  209-        GRID    6               5.0     .0      .0                                      
                  210-        GRID    7               6.0     .0      .0                                      
                  211-        GRID    8               7.0     .0      .0                                      
                  212-        GRID    9               8.0     .0      .0                                      
                  213-        GRID    10              9.0     .0      .0                                      
                  214-        GRID    11              10.0    .0      .0                                      
                  215-        GRID    12              .0      1.0     .0                                      
                  216-        GRID    13              1.0     1.0     .0                                      
                  217-        GRID    14              2.0     1.0     .0                                      
                  218-        GRID    15              3.0     1.0     .0                                      
                  219-        GRID    16              4.0     1.0     .0                                      
                  220-        GRID    17              5.0     1.0     .0                                      
                  221-        GRID    18              6.0     1.0     .0                                      
                  222-        GRID    19              7.0     1.0     .0                                      
                  223-        GRID    20              8.0     1.0     .0                                      
                  224-        GRID    21              9.0     1.0     .0                                      
                  225-        GRID    22              10.0    1.0     .0                                      
                  226-        GRID    23              .0      2.0     .0                                      
                  227-        GRID    24              1.0     2.0     .0                                      
                  228-        GRID    25              2.0     2.0     .0                                      
                  229-        GRID    26              3.0     2.0     .0                                      
                  230-        GRID    27              4.0     2.0     .0                                      
                  231-        GRID    28              5.0     2.0     .0                                      
                  232-        GRID    29              6.0     2.0     .0                                      
                  233-        GRID    30              7.0     2.0     .0                                      
                  234-        GRID    31              8.0     2.0     .0                                      
                  235-        GRID    32              9.0     2.0     .0                                      
1     FREQUENCY RESPONSE OF A 10X10 PLATE                                   /    95 SUN SOLARIS NASTRAN    / MAY 17, 95 / PAGE    11
      NASTRAN DEMONSTRATION PROBLEM NO. D08-01-1A                                                                                   

                                                                                                                                    

                                                  S O R T E D   B U L K    D A T A    E C H O                                       
                     CARD                                                                                                           
                     COUNT        ---1--- +++2+++ ---3--- +++4+++ ---5--- +++6+++ ---7--- +++8+++ ---9--- +++10+++                  
                  236-        GRID    33              10.0    2.0     .0                                      
                  237-        GRID    34              .0      3.0     .0                                      
                  238-        GRID    35              1.0     3.0     .0                                      
                  239-        GRID    36              2.0     3.0     .0                                      
                  240-        GRID    37              3.0     3.0     .0                                      
                  241-        GRID    38              4.0     3.0     .0                                      
                  242-        GRID    39              5.0     3.0     .0                                      
                  243-        GRID    40              6.0     3.0     .0                                      
                  244-        GRID    41              7.0     3.0     .0                                      
                  245-        GRID    42              8.0     3.0     .0                                      
                  246-        GRID    43              9.0     3.0     .0                                      
                  247-        GRID    44              10.0    3.0     .0                                      
                  248-        GRID    45              .0      4.0     .0                                      
                  249-        GRID    46              1.0     4.0     .0                                      
                  250-        GRID    47              2.0     4.0     .0                                      
                  251-        GRID    48              3.0     4.0     .0                                      
                  252-        GRID    49              4.0     4.0     .0                                      
                  253-        GRID    50              5.0     4.0     .0                                      
                  254-        GRID    51              6.0     4.0     .0                                      
                  255-        GRID    52              7.0     4.0     .0                                      
                  256-        GRID    53              8.0     4.0     .0                                      
                  257-        GRID    54              9.0     4.0     .0                                      
                  258-        GRID    55              10.0    4.0     .0                                      
                  259-        GRID    56              .0      5.0     .0                                      
                  260-        GRID    57              1.0     5.0     .0                                      
                  261-        GRID    58              2.0     5.0     .0                                      
                  262-        GRID    59              3.0     5.0     .0                                      
                  263-        GRID    60              4.0     5.0     .0                                      
                  264-        GRID    61              5.0     5.0     .0                                      
                  265-        GRID    62              6.0     5.0     .0                                      
                  266-        GRID    63              7.0     5.0     .0                                      
                  267-        GRID    64              8.0     5.0     .0                                      
                  268-        GRID    65              9.0     5.0     .0                                      
                  269-        GRID    66              10.0    5.0     .0                                      
                  270-        GRID    67              .0      6.0     .0                                      
                  271-        GRID    68              1.0     6.0     .0                                      
                  272-        GRID    69              2.0     6.0     .0                                      
                  273-        GRID    70              3.0     6.0     .0                                      
                  274-        GRID    71              4.0     6.0     .0                                      
                  275-        GRID    72              5.0     6.0     .0                                      
                  276-        GRID    73              6.0     6.0     .0                                      
                  277-        GRID    74              7.0     6.0     .0                                      
                  278-        GRID    75              8.0     6.0     .0                                      
                  279-        GRID    76              9.0     6.0     .0                                      
                  280-        GRID    77              10.0    6.0     .0                                      
                  281-        GRID    78              .0      7.0     .0                                      
                  282-        GRID    79              1.0     7.0     .0                                      
1     FREQUENCY RESPONSE OF A 10X10 PLATE                                   /    95 SUN SOLARIS NASTRAN    / MAY 17, 95 / PAGE    12
      NASTRAN DEMONSTRATION PROBLEM NO. D08-01-1A                                                                                   

                                                                                                                                    

                                                  S O R T E D   B U L K    D A T A    E C H O                                       
                     CARD                                                                                                           
                     COUNT        ---1--- +++2+++ ---3--- +++4+++ ---5--- +++6+++ ---7--- +++8+++ ---9--- +++10+++                  
                  283-        GRID    80              2.0     7.0     .0                                      
                  284-        GRID    81              3.0     7.0     .0                                      
                  285-        GRID    82              4.0     7.0     .0                                      
                  286-        GRID    83              5.0     7.0     .0                                      
                  287-        GRID    84              6.0     7.0     .0                                      
                  288-        GRID    85              7.0     7.0     .0                                      
                  289-        GRID    86              8.0     7.0     .0                                      
                  290-        GRID    87              9.0     7.0     .0                                      
                  291-        GRID    88              10.0    7.0     .0                                      
                  292-        GRID    89              .0      8.0     .0                                      
                  293-        GRID    90              1.0     8.0     .0                                      
                  294-        GRID    91              2.0     8.0     .0                                      
                  295-        GRID    92              3.0     8.0     .0                                      
                  296-        GRID    93              4.0     8.0     .0                                      
                  297-        GRID    94              5.0     8.0     .0                                      
                  298-        GRID    95              6.0     8.0     .0                                      
                  299-        GRID    96              7.0     8.0     .0                                      
                  300-        GRID    97              8.0     8.0     .0                                      
                  301-        GRID    98              9.0     8.0     .0                                      
                  302-        GRID    99              10.0    8.0     .0                                      
                  303-        GRID    100             .0      9.0     .0                                      
                  304-        GRID    101             1.0     9.0     .0                                      
                  305-        GRID    102             2.0     9.0     .0                                      
                  306-        GRID    103             3.0     9.0     .0                                      
                  307-        GRID    104             4.0     9.0     .0                                      
                  308-        GRID    105             5.0     9.0     .0                                      
                  309-        GRID    106             6.0     9.0     .0                                      
                  310-        GRID    107             7.0     9.0     .0                                      
                  311-        GRID    108             8.0     9.0     .0                                      
                  312-        GRID    109             9.0     9.0     .0                                      
                  313-        GRID    110             10.0    9.0     .0                                      
                  314-        GRID    111             .0      10.0    .0                                      
                  315-        GRID    112             1.0     10.0    .0                                      
                  316-        GRID    113             2.0     10.0    .0                                      
                  317-        GRID    114             3.0     10.0    .0                                      
                  318-        GRID    115             4.0     10.0    .0                                      
                  319-        GRID    116             5.0     10.0    .0                                      
                  320-        GRID    117             6.0     10.0    .0                                      
                  321-        GRID    118             7.0     10.0    .0                                      
                  322-        GRID    119             8.0     10.0    .0                                      
                  323-        GRID    120             9.0     10.0    .0                                      
                  324-        GRID    121             10.0    10.0    .0                                      
                  325-        MAT1    8       3.0+7           .300                                            
                  326-        PQUAD1  23                      8       .6666667                13.55715        
                  327-        RLOAD1  8       37                      1                                       
                  328-        SPC1    37      4       1       2       3       4       5       6       +41001H 
                  329-        +41001H 7       8       9       10      11                                      
1     FREQUENCY RESPONSE OF A 10X10 PLATE                                   /    95 SUN SOLARIS NASTRAN    / MAY 17, 95 / PAGE    13
      NASTRAN DEMONSTRATION PROBLEM NO. D08-01-1A                                                                                   

                                                                                                                                    

                                                  S O R T E D   B U L K    D A T A    E C H O                                       
                     CARD                                                                                                           
                     COUNT        ---1--- +++2+++ ---3--- +++4+++ ---5--- +++6+++ ---7--- +++8+++ ---9--- +++10+++                  
                  330-        SPC1    37      5       1       12      23      34      45      56      +31001H 
                  331-        +31001H 67      78      89      100     111                                     
                  332-        SPC1    37      34      11      22      33      44      55      66      +11001H 
                  333-        +11001H 77      88      99      110     121                                     
                  334-        SPC1    37      35      111     112     113     114     115     116     +21001H 
                  335-        +21001H 117     118     119     120     121                                     
                  336-        TABLED1 1                                                               +T1     
                  337-        +T1     .0      10.0    100.0   40.0    ENDT                                    
                              ENDDATA
1     FREQUENCY RESPONSE OF A 10X10 PLATE                                   /    95 SUN SOLARIS NASTRAN    / MAY 17, 95 / PAGE    14
      NASTRAN DEMONSTRATION PROBLEM NO. D08-01-1A                                                                                   
0                                                                                                                                   
0*** USER INFORMATION MESSAGES FROM RESEQUENCING PROCESSOR - BANDIT     (CRI= 1,  MTH= 3,  MPC= 0,  DEP=-1,  PCH=-1)

                               BEFORE RESEQUENCING - - -
                                        BANDWIDTH           13
                                        PROFILE           1441
                                        MAX WAVEFRONT       13
                                        AVG WAVEFRONT   11.909
                                        RMS WAVEFRONT   12.184
                                        RMS BANDWIDTH   12.325

                               AFTER RESEQUENCING BY GIBBS-POOLE-STOCKMEYER (GPS) ALGORITHM - - -
                                        BANDWIDTH           19
                                        PROFILE           1476
                                        MAX WAVEFRONT       17
                                        AVG WAVEFRONT   12.198
                                        RMS WAVEFRONT   12.609
                                        RMS BANDWIDTH   13.093


                                                     *** BANDIT SUMMARY ***

                                                                        BEFORE     AFTER
                                        BANDWIDTH (B)                       13        13
                                        PROFILE (P)                       1441      1441
                                        MAXIMUM WAVEFRONT (C-MAX)           13        13
                                        AVERAGE WAVEFRONT (C-AVG)       11.909    11.909
                                        RMS WAVEFRONT (C-RMS)           12.184    12.184
                                        RMS BANDWITCH (B-RMS)           12.325    12.325
                                        NUMBER OF GRID POINTS (N)                    121
                                        NUMBER OF ELEMENTS (NON-RIGID)               100
                                        NUMBER OF RIGID ELEMENTS PROCESSED*            0
                                        NUMBER OF MPC  EQUATIONS PROCESSED*            0
                                        NUMBER OF COMPONENTS                           1
                                        MAXIMUM NODAL DEGREE                           8
                                        MINIMUM NODAL DEGREE                           3
                                        NUMBER OF UNIQUE EDGES                       420
                                        MATRIX DENSITY, PERCENT                    6.564
                                        NUMBER OF POINTS OF ZERO DEGREE                0
                                        BANDIT OPEN CORE                         1998969
                                        CRITERION*                         RMS WAVEFRONT
                                        METHOD USED*                                 GPS

                               (* THESE DEFAULT OPTIONS CAN BE OVERRIDDEN BY THE NASTRAN CARD)


                               BANDIT FINDS GRID POINT RE-SEQUENCING NOT NECESSARY
0         **NO ERRORS FOUND - EXECUTE NASTRAN PROGRAM**
0*** USER INFORMATION MESSAGE 238, TURN DIAG 38 ON FOR ADDITIONAL ELEMENT PROCESSING INFORMATION

0*** USER INFORMATION MESSAGE 3113,
     EMG MODULE PROCESSING DOUBLE PRECISION QUAD1    ELEMENTS (ELEMENT TYPE  19) STARTING WITH ID        1
0*** SYSTEM WARNING MESSAGE 3022
+                                 (SEE PROG. MANUAL SEC. 4.9.7, OR USERS' MANUAL P. 6.5-3)
     DATA BLOCK B2PP     MAY BE REQUIRED AS INPUT AND IS NOT OUTPUT BY A PREVIOUS MODULE IN THE CURRENT DMAP ROUTE.
1     FREQUENCY RESPONSE OF A 10X10 PLATE                                   /    95 SUN SOLARIS NASTRAN    / MAY 17, 95 / PAGE    15
      NASTRAN DEMONSTRATION PROBLEM NO. D08-01-1A                                                                                   
0                                                                                                                                   
      POINT-ID =       1
                         C O M P L E X   F O R C E S   O F   S I N G L E   P O I N T   C O N S T R A I N T
                                                         (MAGNITUDE/PHASE)
 
      FREQUENCY   TYPE          T1             T2             T3             R1             R2             R3
0  0.0              G      0.0            0.0            0.0            6.603571E+01   6.603571E+01   0.0                           
                             0.0            0.0            0.0            0.0          180.0000         0.0                         
0  8.000000E+00     G      0.0            0.0            0.0            2.286568E+02   2.286568E+02   0.0                           
                             0.0            0.0            0.0            0.0          180.0000         0.0                         
0  9.000000E+00     G      0.0            0.0            0.0            4.470245E+02   4.470245E+02   0.0                           
                             0.0            0.0            0.0            0.0          180.0000         0.0                         
0  1.000000E+01     G      0.0            0.0            0.0            2.906904E+04   2.906904E+04   0.0                           
                             0.0            0.0            0.0          180.0000         0.0            0.0                         
0  1.100000E+01     G      0.0            0.0            0.0            4.112285E+02   4.112285E+02   0.0                           
                             0.0            0.0            0.0          180.0000         0.0            0.0                         
1     FREQUENCY RESPONSE OF A 10X10 PLATE                                   /    95 SUN SOLARIS NASTRAN    / MAY 17, 95 / PAGE    16
      NASTRAN DEMONSTRATION PROBLEM NO. D08-01-1A                                                                                   
0                                                                                                                                   
      POINT-ID =       4
                         C O M P L E X   F O R C E S   O F   S I N G L E   P O I N T   C O N S T R A I N T
                                                         (MAGNITUDE/PHASE)
 
      FREQUENCY   TYPE          T1             T2             T3             R1             R2             R3
0  0.0              G      0.0            0.0            0.0            1.176765E+02   0.0            0.0                           
                             0.0            0.0            0.0            0.0            0.0            0.0                         
0  8.000000E+00     G      0.0            0.0            0.0            4.074694E+02   0.0            0.0                           
                             0.0            0.0            0.0            0.0            0.0            0.0                         
0  9.000000E+00     G      0.0            0.0            0.0            7.966035E+02   0.0            0.0                           
                             0.0            0.0            0.0            0.0            0.0            0.0                         
0  1.000000E+01     G      0.0            0.0            0.0            5.180141E+04   0.0            0.0                           
                             0.0            0.0            0.0          180.0000         0.0            0.0                         
0  1.100000E+01     G      0.0            0.0            0.0            7.328146E+02   0.0            0.0                           
                             0.0            0.0            0.0          180.0000         0.0            0.0                         
1     FREQUENCY RESPONSE OF A 10X10 PLATE                                   /    95 SUN SOLARIS NASTRAN    / MAY 17, 95 / PAGE    17
      NASTRAN DEMONSTRATION PROBLEM NO. D08-01-1A                                                                                   
0                                                                                                                                   
      POINT-ID =       7
                         C O M P L E X   F O R C E S   O F   S I N G L E   P O I N T   C O N S T R A I N T
                                                         (MAGNITUDE/PHASE)
 
      FREQUENCY   TYPE          T1             T2             T3             R1             R2             R3
0  0.0              G      0.0            0.0            0.0            7.762963E+01   0.0            0.0                           
                             0.0            0.0            0.0            0.0            0.0            0.0                         
0  8.000000E+00     G      0.0            0.0            0.0            2.688022E+02   0.0            0.0                           
                             0.0            0.0            0.0            0.0            0.0            0.0                         
0  9.000000E+00     G      0.0            0.0            0.0            5.255088E+02   0.0            0.0                           
                             0.0            0.0            0.0            0.0            0.0            0.0                         
0  1.000000E+01     G      0.0            0.0            0.0            3.417271E+04   0.0            0.0                           
                             0.0            0.0            0.0          180.0000         0.0            0.0                         
0  1.100000E+01     G      0.0            0.0            0.0            4.834281E+02   0.0            0.0                           
                             0.0            0.0            0.0          180.0000         0.0            0.0                         
1     FREQUENCY RESPONSE OF A 10X10 PLATE                                   /    95 SUN SOLARIS NASTRAN    / MAY 17, 95 / PAGE    18
      NASTRAN DEMONSTRATION PROBLEM NO. D08-01-1A                                                                                   
0                                                                                                                                   
      POINT-ID =      11
                         C O M P L E X   F O R C E S   O F   S I N G L E   P O I N T   C O N S T R A I N T
                                                         (MAGNITUDE/PHASE)
 
      FREQUENCY   TYPE          T1             T2             T3             R1             R2             R3
0  0.0              G      0.0            0.0            2.149553E+01   1.173293E+00   0.0            0.0                           
                             0.0            0.0          180.0000         0.0            0.0            0.0                         
0  8.000000E+00     G      0.0            0.0            7.443094E+01   4.062674E+00   0.0            0.0                           
                             0.0            0.0          180.0000         0.0            0.0            0.0                         
0  9.000000E+00     G      0.0            0.0            1.455126E+02   7.942535E+00   0.0            0.0                           
                             0.0            0.0          180.0000         0.0            0.0            0.0                         
0  1.000000E+01     G      0.0            0.0            9.462373E+03   5.164860E+02   0.0            0.0                           
                             0.0            0.0            0.0          180.0000         0.0            0.0                         
0  1.100000E+01     G      0.0            0.0            1.338605E+02   7.306528E+00   0.0            0.0                           
                             0.0            0.0            0.0          180.0000         0.0            0.0                         
1     FREQUENCY RESPONSE OF A 10X10 PLATE                                   /    95 SUN SOLARIS NASTRAN    / MAY 17, 95 / PAGE    19
      NASTRAN DEMONSTRATION PROBLEM NO. D08-01-1A                                                                                   
0                                                                                                                                   
      POINT-ID =      45
                         C O M P L E X   F O R C E S   O F   S I N G L E   P O I N T   C O N S T R A I N T
                                                         (MAGNITUDE/PHASE)
 
      FREQUENCY   TYPE          T1             T2             T3             R1             R2             R3
0  0.0              G      0.0            0.0            0.0            0.0            1.068480E+02   0.0                           
                             0.0            0.0            0.0            0.0          180.0000         0.0                         
0  8.000000E+00     G      0.0            0.0            0.0            0.0            3.699745E+02   0.0                           
                             0.0            0.0            0.0            0.0          180.0000         0.0                         
0  9.000000E+00     G      0.0            0.0            0.0            0.0            7.233008E+02   0.0                           
                             0.0            0.0            0.0            0.0          180.0000         0.0                         
0  1.000000E+01     G      0.0            0.0            0.0            0.0            4.703470E+04   0.0                           
                             0.0            0.0            0.0            0.0            0.0            0.0                         
0  1.100000E+01     G      0.0            0.0            0.0            0.0            6.653818E+02   0.0                           
                             0.0            0.0            0.0            0.0            0.0            0.0                         
1     FREQUENCY RESPONSE OF A 10X10 PLATE                                   /    95 SUN SOLARIS NASTRAN    / MAY 17, 95 / PAGE    20
      NASTRAN DEMONSTRATION PROBLEM NO. D08-01-1A                                                                                   
0                                                                                                                                   
      POINT-ID =      55
                         C O M P L E X   F O R C E S   O F   S I N G L E   P O I N T   C O N S T R A I N T
                                                         (MAGNITUDE/PHASE)
 
      FREQUENCY   TYPE          T1             T2             T3             R1             R2             R3
0  0.0              G      0.0            0.0            3.478050E+01   5.615477E-01   0.0            0.0                           
                             0.0            0.0          180.0000       180.0000         0.0            0.0                         
0  8.000000E+00     G      0.0            0.0            1.204318E+02   1.944428E+00   0.0            0.0                           
                             0.0            0.0          180.0000       180.0000         0.0            0.0                         
0  9.000000E+00     G      0.0            0.0            2.354444E+02   3.801361E+00   0.0            0.0                           
                             0.0            0.0          180.0000       180.0000         0.0            0.0                         
0  1.000000E+01     G      0.0            0.0            1.531044E+04   2.471943E+02   0.0            0.0                           
                             0.0            0.0            0.0            0.0            0.0            0.0                         
0  1.100000E+01     G      0.0            0.0            2.165909E+02   3.496963E+00   0.0            0.0                           
                             0.0            0.0            0.0            0.0            0.0            0.0                         
1     FREQUENCY RESPONSE OF A 10X10 PLATE                                   /    95 SUN SOLARIS NASTRAN    / MAY 17, 95 / PAGE    21
      NASTRAN DEMONSTRATION PROBLEM NO. D08-01-1A                                                                                   
0                                                                                                                                   
      POINT-ID =      78
                         C O M P L E X   F O R C E S   O F   S I N G L E   P O I N T   C O N S T R A I N T
                                                         (MAGNITUDE/PHASE)
 
      FREQUENCY   TYPE          T1             T2             T3             R1             R2             R3
0  0.0              G      0.0            0.0            0.0            0.0            5.995917E+01   0.0                           
                             0.0            0.0            0.0            0.0          180.0000         0.0                         
0  8.000000E+00     G      0.0            0.0            0.0            0.0            2.076160E+02   0.0                           
                             0.0            0.0            0.0            0.0          180.0000         0.0                         
0  9.000000E+00     G      0.0            0.0            0.0            0.0            4.058897E+02   0.0                           
                             0.0            0.0            0.0            0.0          180.0000         0.0                         
0  1.000000E+01     G      0.0            0.0            0.0            0.0            2.639414E+04   0.0                           
                             0.0            0.0            0.0            0.0            0.0            0.0                         
0  1.100000E+01     G      0.0            0.0            0.0            0.0            3.733877E+02   0.0                           
                             0.0            0.0            0.0            0.0            0.0            0.0                         
1     FREQUENCY RESPONSE OF A 10X10 PLATE                                   /    95 SUN SOLARIS NASTRAN    / MAY 17, 95 / PAGE    22
      NASTRAN DEMONSTRATION PROBLEM NO. D08-01-1A                                                                                   
0                                                                                                                                   
      POINT-ID =      88
                         C O M P L E X   F O R C E S   O F   S I N G L E   P O I N T   C O N S T R A I N T
                                                         (MAGNITUDE/PHASE)
 
      FREQUENCY   TYPE          T1             T2             T3             R1             R2             R3
0  0.0              G      0.0            0.0            1.951753E+01   8.512338E-01   0.0            0.0                           
                             0.0            0.0          180.0000       180.0000         0.0            0.0                         
0  8.000000E+00     G      0.0            0.0            6.758187E+01   2.947502E+00   0.0            0.0                           
                             0.0            0.0          180.0000       180.0000         0.0            0.0                         
0  9.000000E+00     G      0.0            0.0            1.321227E+02   5.762372E+00   0.0            0.0                           
                             0.0            0.0          180.0000       180.0000         0.0            0.0                         
0  1.000000E+01     G      0.0            0.0            8.591655E+03   3.747147E+02   0.0            0.0                           
                             0.0            0.0            0.0            0.0            0.0            0.0                         
0  1.100000E+01     G      0.0            0.0            1.215428E+02   5.300944E+00   0.0            0.0                           
                             0.0            0.0            0.0            0.0            0.0            0.0                         
1     FREQUENCY RESPONSE OF A 10X10 PLATE                                   /    95 SUN SOLARIS NASTRAN    / MAY 17, 95 / PAGE    23
      NASTRAN DEMONSTRATION PROBLEM NO. D08-01-1A                                                                                   
0                                                                                                                                   
      POINT-ID =     111
                         C O M P L E X   F O R C E S   O F   S I N G L E   P O I N T   C O N S T R A I N T
                                                         (MAGNITUDE/PHASE)
 
      FREQUENCY   TYPE          T1             T2             T3             R1             R2             R3
0  0.0              G      0.0            0.0            2.149553E+01   0.0            1.173293E+00   0.0                           
                             0.0            0.0          180.0000         0.0          180.0000         0.0                         
0  8.000000E+00     G      0.0            0.0            7.443094E+01   0.0            4.062674E+00   0.0                           
                             0.0            0.0          180.0000         0.0          180.0000         0.0                         
0  9.000000E+00     G      0.0            0.0            1.455126E+02   0.0            7.942535E+00   0.0                           
                             0.0            0.0          180.0000         0.0          180.0000         0.0                         
0  1.000000E+01     G      0.0            0.0            9.462373E+03   0.0            5.164860E+02   0.0                           
                             0.0            0.0            0.0            0.0            0.0            0.0                         
0  1.100000E+01     G      0.0            0.0            1.338605E+02   0.0            7.306528E+00   0.0                           
                             0.0            0.0            0.0            0.0            0.0            0.0                         
1     FREQUENCY RESPONSE OF A 10X10 PLATE                                   /    95 SUN SOLARIS NASTRAN    / MAY 17, 95 / PAGE    24
      NASTRAN DEMONSTRATION PROBLEM NO. D08-01-1A                                                                                   
0                                                                                                                                   
      POINT-ID =     114
                         C O M P L E X   F O R C E S   O F   S I N G L E   P O I N T   C O N S T R A I N T
                                                         (MAGNITUDE/PHASE)
 
      FREQUENCY   TYPE          T1             T2             T3             R1             R2             R3
0  0.0              G      0.0            0.0            3.830532E+01   0.0            4.337253E-01   0.0                           
                             0.0            0.0          180.0000         0.0            0.0            0.0                         
0  8.000000E+00     G      0.0            0.0            1.326369E+02   0.0            1.501827E+00   0.0                           
                             0.0            0.0          180.0000         0.0            0.0            0.0                         
0  9.000000E+00     G      0.0            0.0            2.593054E+02   0.0            2.936075E+00   0.0                           
                             0.0            0.0          180.0000         0.0            0.0            0.0                         
0  1.000000E+01     G      0.0            0.0            1.686207E+04   0.0            1.909267E+02   0.0                           
                             0.0            0.0            0.0            0.0          180.0000         0.0                         
0  1.100000E+01     G      0.0            0.0            2.385412E+02   0.0            2.700966E+00   0.0                           
                             0.0            0.0            0.0            0.0          180.0000         0.0                         
1     FREQUENCY RESPONSE OF A 10X10 PLATE                                   /    95 SUN SOLARIS NASTRAN    / MAY 17, 95 / PAGE    25
      NASTRAN DEMONSTRATION PROBLEM NO. D08-01-1A                                                                                   
0                                                                                                                                   
      POINT-ID =     117
                         C O M P L E X   F O R C E S   O F   S I N G L E   P O I N T   C O N S T R A I N T
                                                         (MAGNITUDE/PHASE)
 
      FREQUENCY   TYPE          T1             T2             T3             R1             R2             R3
0  0.0              G      0.0            0.0            2.526951E+01   0.0            7.729041E-01   0.0                           
                             0.0            0.0          180.0000         0.0            0.0            0.0                         
0  8.000000E+00     G      0.0            0.0            8.749881E+01   0.0            2.676276E+00   0.0                           
                             0.0            0.0          180.0000         0.0            0.0            0.0                         
0  9.000000E+00     G      0.0            0.0            1.710604E+02   0.0            5.232125E+00   0.0                           
                             0.0            0.0          180.0000         0.0            0.0            0.0                         
0  1.000000E+01     G      0.0            0.0            1.112369E+04   0.0            3.402338E+02   0.0                           
                             0.0            0.0            0.0            0.0          180.0000         0.0                         
0  1.100000E+01     G      0.0            0.0            1.573625E+02   0.0            4.813157E+00   0.0                           
                             0.0            0.0            0.0            0.0          180.0000         0.0                         
1     FREQUENCY RESPONSE OF A 10X10 PLATE                                   /    95 SUN SOLARIS NASTRAN    / MAY 17, 95 / PAGE    26
      NASTRAN DEMONSTRATION PROBLEM NO. D08-01-1A                                                                                   
0                                                                                                                                   
      POINT-ID =     121
                         C O M P L E X   F O R C E S   O F   S I N G L E   P O I N T   C O N S T R A I N T
                                                         (MAGNITUDE/PHASE)
 
      FREQUENCY   TYPE          T1             T2             T3             R1             R2             R3
0  0.0              G      0.0            0.0            1.426342E+02   4.776810E-01   4.776810E-01   0.0                           
                             0.0            0.0            0.0          180.0000         0.0            0.0                         
0  8.000000E+00     G      0.0            0.0            4.938884E+02   1.654029E+00   1.654029E+00   0.0                           
                             0.0            0.0            0.0          180.0000         0.0            0.0                         
0  9.000000E+00     G      0.0            0.0            9.655529E+02   3.233631E+00   3.233631E+00   0.0                           
                             0.0            0.0            0.0          180.0000         0.0            0.0                         
0  1.000000E+01     G      0.0            0.0            6.278782E+04   2.102761E+02   2.102761E+02   0.0                           
                             0.0            0.0          180.0000         0.0          180.0000         0.0                         
0  1.100000E+01     G      0.0            0.0            8.882352E+02   2.974694E+00   2.974694E+00   0.0                           
                             0.0            0.0          180.0000         0.0          180.0000         0.0                         
1     FREQUENCY RESPONSE OF A 10X10 PLATE                                   /    95 SUN SOLARIS NASTRAN    / MAY 17, 95 / PAGE    27
      NASTRAN DEMONSTRATION PROBLEM NO. D08-01-1A                                                                                   
0                                                                                                                                   
      POINT-ID =       1
                                       C O M P L E X   D I S P L A C E M E N T   V E C T O R
                                                         (MAGNITUDE/PHASE)
 
      FREQUENCY   TYPE          T1             T2             T3             R1             R2             R3
0  0.0              G      0.0            0.0            1.873926E-04   0.0            0.0            0.0                           
                             0.0            0.0            0.0            0.0            0.0            0.0                         
0  8.000000E+00     G      0.0            0.0            6.488702E-04   0.0            0.0            0.0                           
[...]
 
      FREQUENCY   TYPE          T1             T2             T3             R1             R2             R3
0  0.0              G      0.0            0.0            1.101466E-04   0.0            2.379286E-05   0.0                           
                             0.0            0.0            0.0            0.0            0.0            0.0                         
0  8.000000E+00     G      0.0            0.0            3.813963E-04   0.0            8.238571E-05   0.0                           
                             0.0            0.0            0.0            0.0            0.0            0.0                         
0  9.000000E+00     G      0.0            0.0            7.456306E-04   0.0            1.610642E-04   0.0                           
                             0.0            0.0            0.0            0.0            0.0            0.0                         
0  1.000000E+01     G      0.0            0.0            4.848675E-02   0.0            1.047366E-02   0.0                           
                             0.0            0.0          180.0000         0.0          180.0000         0.0                         
0  1.100000E+01     G      0.0            0.0            6.859234E-04   0.0            1.481668E-04   0.0                           
                             0.0            0.0          180.0000         0.0          180.0000         0.0                         
1     FREQUENCY RESPONSE OF A 10X10 PLATE                                   /    95 SUN SOLARIS NASTRAN    / MAY 17, 95 / PAGE    30
      NASTRAN DEMONSTRATION PROBLEM NO. D08-01-1A                                                                                   
0                                                                                                                                   
      POINT-ID =      11
                                       C O M P L E X   D I S P L A C E M E N T   V E C T O R
                                                         (MAGNITUDE/PHASE)
 
      FREQUENCY   TYPE          T1             T2             T3             R1             R2             R3
0  0.0              G      0.0            0.0            0.0            0.0            2.940959E-05   0.0                           
                             0.0            0.0            0.0            0.0            0.0            0.0                         
0  8.000000E+00     G      0.0            0.0            0.0            0.0            1.018343E-04   0.0                           
                             0.0            0.0            0.0            0.0            0.0            0.0                         
0  9.000000E+00     G      0.0            0.0            0.0            0.0            1.990864E-04   0.0                           
                             0.0            0.0            0.0            0.0            0.0            0.0                         
0  1.000000E+01     G      0.0            0.0            0.0            0.0            1.294616E-02   0.0                           
                             0.0            0.0            0.0            0.0          180.0000         0.0                         
0  1.100000E+01     G      0.0            0.0            0.0            0.0            1.831443E-04   0.0                           
                             0.0            0.0            0.0            0.0          180.0000         0.0                         
1     FREQUENCY RESPONSE OF A 10X10 PLATE                                   /    95 SUN SOLARIS NASTRAN    / MAY 17, 95 / PAGE    31
      NASTRAN DEMONSTRATION PROBLEM NO. D08-01-1A                                                                                   
0                                                                                                                                   
      POINT-ID =      45
                                       C O M P L E X   D I S P L A C E M E N T   V E C T O R
                                                         (MAGNITUDE/PHASE)
 
      FREQUENCY   TYPE          T1             T2             T3             R1             R2             R3
0  0.0              G      0.0            0.0            1.516038E-04   1.728652E-05   0.0            0.0                           
                             0.0            0.0            0.0          180.0000         0.0            0.0                         
0  8.000000E+00     G      0.0            0.0            5.249470E-04   5.985672E-05   0.0            0.0                           
                             0.0            0.0            0.0          180.0000         0.0            0.0                         
0  9.000000E+00     G      0.0            0.0            1.026272E-03   1.170200E-04   0.0            0.0                           
                             0.0            0.0            0.0          180.0000         0.0            0.0                         
0  1.000000E+01     G      0.0            0.0            6.673629E-02   7.609560E-03   0.0            0.0                           
                             0.0            0.0          180.0000         0.0            0.0            0.0                         
0  1.100000E+01     G      0.0            0.0            9.440926E-04   1.076495E-04   0.0            0.0                           
                             0.0            0.0          180.0000         0.0            0.0            0.0                         
1     FREQUENCY RESPONSE OF A 10X10 PLATE                                   /    95 SUN SOLARIS NASTRAN    / MAY 17, 95 / PAGE    32
      NASTRAN DEMONSTRATION PROBLEM NO. D08-01-1A                                                                                   
0                                                                                                                                   
      POINT-ID =      55
                                       C O M P L E X   D I S P L A C E M E N T   V E C T O R
                                                         (MAGNITUDE/PHASE)
 
      FREQUENCY   TYPE          T1             T2             T3             R1             R2             R3
0  0.0              G      0.0            0.0            0.0            0.0            2.379286E-05   0.0                           
                             0.0            0.0            0.0            0.0            0.0            0.0                         
0  8.000000E+00     G      0.0            0.0            0.0            0.0            8.238571E-05   0.0                           
                             0.0            0.0            0.0            0.0            0.0            0.0                         
0  9.000000E+00     G      0.0            0.0            0.0            0.0            1.610642E-04   0.0                           
                             0.0            0.0            0.0            0.0            0.0            0.0                         
0  1.000000E+01     G      0.0            0.0            0.0            0.0            1.047366E-02   0.0                           
                             0.0            0.0            0.0            0.0          180.0000         0.0                         
0  1.100000E+01     G      0.0            0.0            0.0            0.0            1.481668E-04   0.0                           
                             0.0            0.0            0.0            0.0          180.0000         0.0                         
1     FREQUENCY RESPONSE OF A 10X10 PLATE                                   /    95 SUN SOLARIS NASTRAN    / MAY 17, 95 / PAGE    33
      NASTRAN DEMONSTRATION PROBLEM NO. D08-01-1A                                                                                   
0                                                                                                                                   
      POINT-ID =      78
                                       C O M P L E X   D I S P L A C E M E N T   V E C T O R
                                                         (MAGNITUDE/PHASE)
 
      FREQUENCY   TYPE          T1             T2             T3             R1             R2             R3
0  0.0              G      0.0            0.0            8.507448E-05   2.620414E-05   0.0            0.0                           
                             0.0            0.0            0.0          180.0000         0.0            0.0                         
0  8.000000E+00     G      0.0            0.0            2.945809E-04   9.073506E-05   0.0            0.0                           
                             0.0            0.0            0.0          180.0000         0.0            0.0                         
0  9.000000E+00     G      0.0            0.0            5.759062E-04   1.773872E-04   0.0            0.0                           
                             0.0            0.0            0.0          180.0000         0.0            0.0                         
0  1.000000E+01     G      0.0            0.0            3.744994E-02   1.153511E-02   0.0            0.0                           
                             0.0            0.0          180.0000         0.0            0.0            0.0                         
0  1.100000E+01     G      0.0            0.0            5.297899E-04   1.631828E-04   0.0            0.0                           
                             0.0            0.0          180.0000         0.0            0.0            0.0                         
1     FREQUENCY RESPONSE OF A 10X10 PLATE                                   /    95 SUN SOLARIS NASTRAN    / MAY 17, 95 / PAGE    34
      NASTRAN DEMONSTRATION PROBLEM NO. D08-01-1A                                                                                   
0                                                                                                                                   
      POINT-ID =      88
                                       C O M P L E X   D I S P L A C E M E N T   V E C T O R
                                                         (MAGNITUDE/PHASE)
 
      FREQUENCY   TYPE          T1             T2             T3             R1             R2             R3
0  0.0              G      0.0            0.0            0.0            0.0            1.335168E-05   0.0                           
                             0.0            0.0            0.0            0.0            0.0            0.0                         
0  8.000000E+00     G      0.0            0.0            0.0            0.0            4.623182E-05   0.0                           
                             0.0            0.0            0.0            0.0            0.0            0.0                         
0  9.000000E+00     G      0.0            0.0            0.0            0.0            9.038331E-05   0.0                           
                             0.0            0.0            0.0            0.0            0.0            0.0                         
0  1.000000E+01     G      0.0            0.0            0.0            0.0            5.877432E-03   0.0                           
                             0.0            0.0            0.0            0.0          180.0000         0.0                         
0  1.100000E+01     G      0.0            0.0            0.0            0.0            8.314577E-05   0.0                           
                             0.0            0.0            0.0            0.0          180.0000         0.0                         
1     FREQUENCY RESPONSE OF A 10X10 PLATE                                   /    95 SUN SOLARIS NASTRAN    / MAY 17, 95 / PAGE    35
      NASTRAN DEMONSTRATION PROBLEM NO. D08-01-1A                                                                                   
0                                                                                                                                   
      POINT-ID =     111
                                       C O M P L E X   D I S P L A C E M E N T   V E C T O R
                                                         (MAGNITUDE/PHASE)
 
      FREQUENCY   TYPE          T1             T2             T3             R1             R2             R3
0  0.0              G      0.0            0.0            0.0            2.940959E-05   0.0            0.0                           
                             0.0            0.0            0.0          180.0000         0.0            0.0                         
0  8.000000E+00     G      0.0            0.0            0.0            1.018343E-04   0.0            0.0                           
                             0.0            0.0            0.0          180.0000         0.0            0.0                         
0  9.000000E+00     G      0.0            0.0            0.0            1.990864E-04   0.0            0.0                           
                             0.0            0.0            0.0          180.0000         0.0            0.0                         
0  1.000000E+01     G      0.0            0.0            0.0            1.294616E-02   0.0            0.0                           
                             0.0            0.0            0.0            0.0            0.0            0.0                         
0  1.100000E+01     G      0.0            0.0            0.0            1.831443E-04   0.0            0.0                           
                             0.0            0.0            0.0            0.0            0.0            0.0                         
1     FREQUENCY RESPONSE OF A 10X10 PLATE                                   /    95 SUN SOLARIS NASTRAN    / MAY 17, 95 / PAGE    36
      NASTRAN DEMONSTRATION PROBLEM NO. D08-01-1A                                                                                   
0                                                                                                                                   
      POINT-ID =     114
                                       C O M P L E X   D I S P L A C E M E N T   V E C T O R
                                                         (MAGNITUDE/PHASE)
 
      FREQUENCY   TYPE          T1             T2             T3             R1             R2             R3
0  0.0              G      0.0            0.0            0.0            2.620414E-05   0.0            0.0                           
                             0.0            0.0            0.0          180.0000         0.0            0.0                         
0  8.000000E+00     G      0.0            0.0            0.0            9.073506E-05   0.0            0.0                           
                             0.0            0.0            0.0          180.0000         0.0            0.0                         
0  9.000000E+00     G      0.0            0.0            0.0            1.773872E-04   0.0            0.0                           
                             0.0            0.0            0.0          180.0000         0.0            0.0                         
0  1.000000E+01     G      0.0            0.0            0.0            1.153511E-02   0.0            0.0                           
                             0.0            0.0            0.0            0.0            0.0            0.0                         
0  1.100000E+01     G      0.0            0.0            0.0            1.631828E-04   0.0            0.0                           
                             0.0            0.0            0.0            0.0            0.0            0.0                         
1     FREQUENCY RESPONSE OF A 10X10 PLATE                                   /    95 SUN SOLARIS NASTRAN    / MAY 17, 95 / PAGE    37
      NASTRAN DEMONSTRATION PROBLEM NO. D08-01-1A                                                                                   
0                                                                                                                                   
      POINT-ID =     117
                                       C O M P L E X   D I S P L A C E M E N T   V E C T O R
                                                         (MAGNITUDE/PHASE)
 
      FREQUENCY   TYPE          T1             T2             T3             R1             R2             R3
0  0.0              G      0.0            0.0            0.0            1.728652E-05   0.0            0.0                           
                             0.0            0.0            0.0          180.0000         0.0            0.0                         
0  8.000000E+00     G      0.0            0.0            0.0            5.985672E-05   0.0            0.0                           
                             0.0            0.0            0.0          180.0000         0.0            0.0                         
0  9.000000E+00     G      0.0            0.0            0.0            1.170200E-04   0.0            0.0                           
                             0.0            0.0            0.0          180.0000         0.0            0.0                         
0  1.000000E+01     G      0.0            0.0            0.0            7.609560E-03   0.0            0.0                           
                             0.0            0.0            0.0            0.0            0.0            0.0                         
0  1.100000E+01     G      0.0            0.0            0.0            1.076495E-04   0.0            0.0                           
                             0.0            0.0            0.0            0.0            0.0            0.0                         
1     FREQUENCY RESPONSE OF A 10X10 PLATE                                   /    95 SUN SOLARIS NASTRAN    / MAY 17, 95 / PAGE    38
      NASTRAN DEMONSTRATION PROBLEM NO. D08-01-1A                                                                                   
0                                                                                                                                   
      POINT-ID =     121
                                       C O M P L E X   D I S P L A C E M E N T   V E C T O R
                                                         (MAGNITUDE/PHASE)
 
      FREQUENCY   TYPE          T1             T2             T3             R1             R2             R3
0  0.0              G      0.0            0.0            0.0            0.0            0.0            0.0                           
                             0.0            0.0            0.0            0.0            0.0            0.0                         
0  8.000000E+00     G      0.0            0.0            0.0            0.0            0.0            0.0                           
                             0.0            0.0            0.0            0.0            0.0            0.0                         
0  9.000000E+00     G      0.0            0.0            0.0            0.0            0.0            0.0                           
                             0.0            0.0            0.0            0.0            0.0            0.0                         
0  1.000000E+01     G      0.0            0.0            0.0            0.0            0.0            0.0                           
                             0.0            0.0            0.0            0.0            0.0            0.0                         
0  1.100000E+01     G      0.0            0.0            0.0            0.0            0.0            0.0                           
                             0.0            0.0            0.0            0.0            0.0            0.0                         




                                        * * * END OF JOB * * *
1
 JOB TITLE =  FREQUENCY RESPONSE OF A 10X10 PLATE                                
 DATE:  5/17/95
 END TIME: 15:59:52
 TOTAL WALL CLOCK TIME      3 SEC.
 
