





                                  ****
                                *      *
                               *        *
                               *  N A S T R A N
                               *        *
                                *      *
                                  ****


                             SUN COMPUTER SYSTEMS    
                                SOLARIS VERSION

                          SYSTEM RELEASE -  1995 ED.

                                DISTRIBUTED BY

         COMPUTER SOFTWARE MANAGEMENT AND INFORMATION CENTER (COSMIC)
                 UNIVERSITY OF GEORGIA, ATHENS, GEORGIA 30602
                 PHONE: (706)542-3265      FAX: (706)542-4807
1                                                                           /    95 SUN SOLARIS NASTRAN    / MAY 17, 95 / PAGE     2
                                                                                                                                    
0                                                                                                                                   
                                                                                                         
                                                                                                         
                         INSTALLATION CENTER USER INFORMATION GIVEN IN THIS SECTION                      
                                                                                                         
                                     *********************************************                       
                                     *                                           *                       
                                     *  PLEASE READ THE COMMENT IN DEMO PROBLEM  *                       
                                     *  D01002A ABOUT SYSTEM TIMING CONSTANTS    *                       
                                     *                                           *                       
                                     *********************************************                       
                                                                                                         
                         ===X=    TOP OF PAGE REQUEST IF 'X' IS REPLACED BY '='                          
                                                                                                         
1                                                                           /    95 SUN SOLARIS NASTRAN    / MAY 17, 95 / PAGE     3
                                                                                                                                    
0                                                                                                                                   
0*** USER INFORMATION MESSAGE 225, GINO TIME CONSTANTS ARE BEING COMPUTED
     (SEE NASINFO FILE FOR ELIMINATION OF THESE COMPUTATIONS)
1                                                                           /    95 SUN SOLARIS NASTRAN    / MAY 17, 95 / PAGE     4
                                                                                                                                    
0        N A S T R A N    E X E C U T I V E    C O N T R O L    D E C K    E C H O                                                  
0                                                                                                                                   
                                                                                                                                    
                                                                                                                                    
     ID    D09022A,NASTRAN                                                           
     ALTER   1 $                                                                     
     PARAM   //C,N,NOP/V,N,TRUE=-1 $                                                 
     INPUT,  ,,,,/,G2,,,/C,N,5 $                                                     
     EQUIV   G2,GEOM2/TRUE $                                                         
     ENDALTER $                                                                      
     TIME    16                                                                      
     APP     DISP                                                                    
     SOL     9,1                                                                     
     DIAG    14                                                                      
     CEND                                                                            


0*** USER INFORMATION MESSAGE, TURN DIAG 48 ON FOR NASTRAN RELEASE NEWS, DIAG DEFINITION, NEW DMAP
         MODULES AND NEW BULKDATA CARDS INFORMATION
1     TRANSIENT ANALYSIS OF A 1000 CELL STRING                              /    95 SUN SOLARIS NASTRAN    / MAY 17, 95 / PAGE     5
      NASTRAN DEMONSTRATION PROBLEM NO. D09-02-2A                                                                                   
0     TRAVELING WAVE PROBLEM                                                                                                        
0                                        C A S E    C O N T R O L   D E C K   E C H O                                               
                 CARD                                                                                                               
                 COUNT                                                                                                              
                  1      TITLE    = TRANSIENT ANALYSIS OF A 1000 CELL STRING                             
                  2      SUBTITLE = NASTRAN DEMONSTRATION PROBLEM NO. D09-02-2A                          
                  3         LABEL = TRAVELING WAVE PROBLEM                                               
                  4         TSTEP = 9                                                                    
                  5            IC = 9                                                                    
                  6      OUTPUT                                                                          
                  7         SET 1 = 2,4,5,6,10,12,14,16,18,20,22,24,26,28,30,40,50, 100,200,500          
                  8         DISPLACEMENT = 1                                                             
                  9         VELOCITY = 1                                                                 
                 10      BEGIN BULK                                                                      


                        (NO. OF UNSORTED BULK DATA CARDS READ =    20, INCLUDING   0 COMMENT CARDS)
0*** USER INFORMATION MESSAGE 207, BULK DATA DECK IS NOT SORTED. NASTRAN WILL RE-ORDER THE INPUT DECK.
1     TRANSIENT ANALYSIS OF A 1000 CELL STRING                              /    95 SUN SOLARIS NASTRAN    / MAY 17, 95 / PAGE     6
      NASTRAN DEMONSTRATION PROBLEM NO. D09-02-2A                                                                                   
0     TRAVELING WAVE PROBLEM                                                                                                        
0                                                 S O R T E D   B U L K    D A T A    E C H O                                       
                     CARD                                                                                                           
                     COUNT        ---1--- +++2+++ ---3--- +++4+++ ---5--- +++6+++ ---7--- +++8+++ ---9--- +++10+++                  
                    1-        TIC     9       2               .2                                              
                    2-        TIC     9       3               .4                                              
                    3-        TIC     9       4               .6                                              
                    4-        TIC     9       5               .8                                              
                    5-        TIC     9       6               1.0                                             
                    6-        TIC     9       7               1.2                                             
                    7-        TIC     9       8               1.4                                             
                    8-        TIC     9       9               1.6                                             
                    9-        TIC     9       10              1.8                                             
                   10-        TIC     9       11              2.0                                             
                   11-        TIC     9       12              1.8                                             
                   12-        TIC     9       13              1.6                                             
                   13-        TIC     9       14              1.4                                             
                   14-        TIC     9       15              1.2                                             
                   15-        TIC     9       16              1.0                                             
                   16-        TIC     9       17              .8                                              
                   17-        TIC     9       18              .6                                              
                   18-        TIC     9       19              .4                                              
                   19-        TIC     9       20              .2                                              
                   20-        TSTEP   9       50      .5-3    1                                               
                              ENDDATA
1     TRANSIENT ANALYSIS OF A 1000 CELL STRING                              /    95 SUN SOLARIS NASTRAN    / MAY 17, 95 / PAGE     7
      NASTRAN DEMONSTRATION PROBLEM NO. D09-02-2A                                                                                   
0     TRAVELING WAVE PROBLEM                                                                                                        
0         COSMIC / NASTRAN DMAP COMPILER - SOURCE LISTING                                                                           
                                                                                                                                    
                                                                                                                                    
0  OPTIONS IN EFFECT GO      ERR=2   LIST    NODECK  NOREF   NOOSCAR 
   -----------------


       1  BEGIN    DISP 09 - DIRECT TRANSIENT RESPONSE ANALYSIS - APR. 1995 $     

       1  PARAM   //C,N,NOP/V,N,TRUE=-1 $                                         

       1  INPUT,  ,,,,/,G2,,,/C,N,5 $                                             

       1  EQUIV   G2,GEOM2/TRUE $                                                 

       2  PRECHK   ALL $                                                          

       3  FILE     UDVT=APPEND/TOL=APPEND/RLODDISP=APPEND $                       

       4  PARAM    //*MPY*/CARDNO/0/0 $                                           

       5  GP1      GEOM1,GEOM2,/GPL,EQEXIN,GPDT,CSTM,BGPDT,SIL/S,N,LUSET/         
                   S,N,NOGPDT/ALWAYS=-1 $                                         

       6  ANISOP   GEOM1,EPT,BGPDT,EQEXIN,MPT/MPTA/S,N,ISOP $                     

       7  EQUIV    MPTA,MPT/ISOP $                                                

       8  PLTTRAN  BGPDT,SIL/BGPDP,SIP/LUSET/S,N,LUSEP $                          

       9  PURGE    USET,GM,GO,KAA,BAA,MAA,K4AA,PST,KFS,QP,EST,ECT,PLTSETX,PLTPAR, 
                   GPSETS,ELSETS/NOGPDT $                                         

      10  COND     LBL5,NOGPDT $                                                  

      11  GP2      GEOM2,EQEXIN/ECT $                                             

      12  PARAML   PCDB//*PRES*////JUMPPLOT $                                     

      13  PURGE    PLTSETX,PLTPAR,GPSETS,ELSETS/JUMPPLOT $                        

      14  COND     P1,JUMPPLOT $                                                  

      15  PLTSET   PCDB,EQEXIN,ECT,EPT/PLTSETX,PLTPAR,GPSETS,ELSETS/S,N,NSIL/     
                   S,N,JUMPPLOT $                                                 

      16  PRTMSG   PLTSETX// $                                                    

      17  PARAM    //*MPY*/PLTFLG/1/1 $                                           
1     TRANSIENT ANALYSIS OF A 1000 CELL STRING                              /    95 SUN SOLARIS NASTRAN    / MAY 17, 95 / PAGE     8
      NASTRAN DEMONSTRATION PROBLEM NO. D09-02-2A                                                                                   

      TRAVELING WAVE PROBLEM                                                                                                        

          COSMIC / NASTRAN DMAP COMPILER - SOURCE LISTING                                                                           
                                                                                                                                    
                                                                                                                                    

      18  PARAM    //*MPY*/PFILE/0/0 $                                            

      19  COND     P1,JUMPPLOT $                                                  

      20  PLOT     PLTPAR,GPSETS,ELSETS,CASECC,BGPDT,EQEXIN,SIL,,ECT,,,,/PLOTX1/  
                   NSIL/LUSET/S,N,JUMPPLOT/S,N,PLTFLG/S,N,PFILE $                 

      21  PRTMSG   PLOTX1// $                                                     

      22  LABEL    P1 $                                                           

      23  GP3      GEOM3,EQEXIN,GEOM2/SLT,GPTT/NOGRAV $                           

      24  TA1      ECT,EPT,BGPDT,SIL,GPTT,CSTM,MPT,EQEXIN/EST,GEI,GPECT,,,MPTX,   
                   PCOMPS,EPTX/LUSET/S,N,NOSIMP=-1/1/S,N,NOGENL=-1/GENEL/         
                   S,N,COMPS                                                      

      25  EQUIV    MPTX,MPT/COMPS/EPTX,EPT/COMPS $                                

      26  PURGE    K4GG,MGG,BGG,                                                  
                   K4NN,K4FF,K4AA,MNN,MFF,MAA,BNN,BFF,BAA,KGGX/NOSIMP $           

      27  COND     LBL1,NOSIMP $                                                  

      28  PARAM    //*ADD*/NOKGGX/1/0 $                                           

      29  PARAM    //*ADD*/NOMGG/1/0 $                                            

      30  PARAM    //*ADD*/NOBGG=-1/1/0 $                                         

      31  PARAM    //*ADD*/NOK4GG/1/0 $                                           

      32  EMG      EST,CSTM,MPT,DIT,GEOM2,/KELM,KDICT,MELM,MDICT,BELM,BDICT,/     
                   S,N,NOKGGX/S,N,NOMGG/S,N,NOBGG/S,N,NOK4GG//C,Y,COUPMASS/       
                   C,Y,CPBAR/C,Y,CPROD/C,Y,CPQUAD1/C,Y,CPQUAD2/C,Y,CPTRIA1/       
                   C,Y,CPTRIA2/C,Y,CPTUBE/C,Y,CPQDPLT/C,Y,CPTRPLT/C,Y,CPTRBSC/    
                   C,Y,VOLUME/C,Y,SURFACE $                                       

      33  PURGE    KGGX/NOKGGX/MGG/NOMGG $                                        

      34  COND     LBLKGGX,NOKGGX $                                               

      35  EMA      GPECT,KDICT,KELM/KGGX $                                        

      36  LABEL    LBLKGGX $                                                      
1     TRANSIENT ANALYSIS OF A 1000 CELL STRING                              /    95 SUN SOLARIS NASTRAN    / MAY 17, 95 / PAGE     9
      NASTRAN DEMONSTRATION PROBLEM NO. D09-02-2A                                                                                   

      TRAVELING WAVE PROBLEM                                                                                                        

          COSMIC / NASTRAN DMAP COMPILER - SOURCE LISTING                                                                           
                                                                                                                                    
                                                                                                                                    

      37  COND     LBLMGG,NOMGG $                                                 

      38  EMA      GPECT,MDICT,MELM/MGG/-1/C,Y,WTMASS=1.0 $                       

      39  PURGE    MDICT,MELM/ALWAYS $                                            

      40  LABEL    LBLMGG $                                                       

      41  COND     LBLBGG,NOBGG $                                                 

      42  EMA      GPECT,BDICT,BELM/BGG $                                         

      43  PURGE    BDICT,BELM/ALWAYS $                                            

      44  LABEL    LBLBGG $                                                       

      45  COND     LBLK4GG,NOK4GG $                                               

      46  EMA      GPECT,KDICT,KELM/K4GG/NOK4GG $                                 

      47  LABEL    LBLK4GG $                                                      

      48  PURGE    KDICT,KELM/ALWAYS $                                            

      49  PURGE    MNN,MFF,MAA/NOMGG $                                            

      50  PURGE    BNN,BFF,BAA/NOBGG $                                            

      51  COND     LBL1,GRDPNT $                                                  

      52  COND     ERROR3,NOMGG $                                                 

      53  GPWG     BGPDP,CSTM,EQEXIN,MGG/OGPWG/V,Y,GRDPNT=-1/C,Y,WTMASS $         

      54  OFP      OGPWG,,,,,//S,N,CARDNO $                                       

      55  LABEL    LBL1  $                                                        

      56  EQUIV    KGGX,KGG/NOGENL $                                              

      57  COND     LBL11,NOGENL $                                                 

      58  SMA3     GEI,KGGX/KGG/LUSET/NOGENL/NOSIMP $                             

      59  LABEL    LBL11 $                                                        
1     TRANSIENT ANALYSIS OF A 1000 CELL STRING                              /    95 SUN SOLARIS NASTRAN    / MAY 17, 95 / PAGE    10
      NASTRAN DEMONSTRATION PROBLEM NO. D09-02-2A                                                                                   

      TRAVELING WAVE PROBLEM                                                                                                        

          COSMIC / NASTRAN DMAP COMPILER - SOURCE LISTING                                                                           
                                                                                                                                    
                                                                                                                                    

      60  GPSTGEN  KGG,SIL/GPST $                                                 

      61  PARAM    //*MPY*/NSKIP/0/0 $                                            

      62  GP4      CASECC,GEOM4,EQEXIN,GPDT,BGPDT,CSTM,GPST/RG,,USET,             
                   ASET,OGPST/LUSET/S,N,MPCF1/S,N,MPCF2/S,N,SINGLE/S,N,OMIT/      
                   S,N,REACT/S,N,NSKIP/S,N,REPEAT/S,N,NOSET/S,N,NOL/S,N,NOA/      
                   C,Y,ASETOUT/C,Y,AUTOSPC $                                      

      63  OFP      OGPST,,,,,//S,N,CARDNO $                                       

      64  PURGE    GM,GMD/MPCF1/GO,GOD/OMIT/KFS,PST,QP/SINGLE $                   

      65  EQUIV    KGG,KNN/MPCF1/MGG,MNN/MPCF1/ BGG,BNN/MPCF1/K4GG,K4NN/MPCF1 $   

      66  COND     LBL2,MPCF1 $                                                   

      67  MCE1     USET,RG/GM $                                                   

      68  MCE2     USET,GM,KGG,MGG,BGG,K4GG/KNN,MNN,BNN,K4NN  $                   

      69  LABEL    LBL2 $                                                         

      70  EQUIV    KNN,KFF/SINGLE/MNN,MFF/SINGLE/BNN,BFF/SINGLE/K4NN,K4FF/SINGLE $

      71  COND     LBL3,SINGLE $                                                  

      72  SCE1     USET,KNN,MNN,BNN,K4NN/KFF,KFS,   ,MFF,BFF,K4FF $               

      73  LABEL    LBL3 $                                                         

      74  EQUIV    KFF,KAA/OMIT $                                                 

      75  EQUIV    MFF,MAA/OMIT $                                                 

      76  EQUIV    BFF,BAA/OMIT $                                                 

      77  EQUIV    K4FF,K4AA/OMIT $                                               

      78  COND     LBL5,OMIT $                                                    

      79  SMP1     USET,KFF,,,/GO,KAA,KOO,LOO,,,,, $                              

      80  COND     LBLM,NOMGG $                                                   

      81  SMP2     USET,GO,MFF/MAA $                                              
1     TRANSIENT ANALYSIS OF A 1000 CELL STRING                              /    95 SUN SOLARIS NASTRAN    / MAY 17, 95 / PAGE    11
      NASTRAN DEMONSTRATION PROBLEM NO. D09-02-2A                                                                                   

      TRAVELING WAVE PROBLEM                                                                                                        

          COSMIC / NASTRAN DMAP COMPILER - SOURCE LISTING                                                                           
                                                                                                                                    
                                                                                                                                    

      82  LABEL    LBLM $                                                         

      83  COND     LBLB,NOBGG $                                                   

      84  SMP2     USET,GO,BFF/BAA $                                              

      85  LABEL    LBLB $                                                         

      86  COND     LBL5,NOK4GG $                                                  

      87  SMP2     USET,GO,K4FF/K4AA $                                            

      88  LABEL    LBL5 $                                                         

      89  DPD      DYNAMICS,GPL,SIL,USET/GPLD,SILD,USETD,TFPOOL,DLT,,,NLFT,TRL,,  
                   EQDYN/LUSET/S,N,LUSETD/NOTFL/S,N,NODLT/NOPSDL/                 
                   NOFRL/S,N,NONLFT/S,N,NOTRL/NOEED//S,N,NOUE $                   

      90  COND     ERROR1,NOTRL $                                                 

      91  PURGE    PNLD/NONLFT$                                                   

      92  EQUIV    GO,GOD/NOUE/GM,GMD/NOUE  $                                     

      93  BMG      MATPOOL,BGPDT,EQEXIN,CSTM/BDPOOL/S,N,NOKBFL/S,N,NOABFL/        
                   S,N,MFACT $                                                    

      94  PARAM    //*AND*/NOFL/NOABFL/NOKBFL $                                   

      95  PURGE    KBFL/NOKBFL/ ABFL/NOABFL $                                     

      96  COND     LBLFL3,NOFL $                                                  

      97  MTRXIN,  ,BDPOOL,EQDYN,,/ABFL,KBFL,/LUSETD/S,N,NOABFL/S,N,NOKBFL/       
                   0 $                                                            

      98  LABEL    LBLFL3 $                                                       

      99  MTRXIN   CASECC,MATPOOL,EQDYN,,TFPOOL/K2DPP,M2DPP,B2PP/LUSETD/S,N,      
                   NOK2DPP/S,N,NOM2DPP/S,N,NOB2PP $                               

     100  PARAM    //*AND*/NOM2PP/NOABFL/NOM2DPP $                                

     101  PARAM    //*AND*/NOK2PP/NOFL  /NOK2DPP $                                

     102  EQUIV    K2DPP,K2PP/NOFL/M2DPP,M2PP/NOABFL $                            
1     TRANSIENT ANALYSIS OF A 1000 CELL STRING                              /    95 SUN SOLARIS NASTRAN    / MAY 17, 95 / PAGE    12
      NASTRAN DEMONSTRATION PROBLEM NO. D09-02-2A                                                                                   

      TRAVELING WAVE PROBLEM                                                                                                        

          COSMIC / NASTRAN DMAP COMPILER - SOURCE LISTING                                                                           
                                                                                                                                    
                                                                                                                                    

     103  COND     LBLFL2,NOFL $                                                  

     104  ADD5     ABFL,KBFL,K2DPP,,/K2PP/(-1.0,0.0) $                            

     105  COND     LBLFL2,NOABFL $                                                

     106  TRNSP    ABFL/ABFLT $                                                   

     107  ADD      ABFLT,M2DPP/M2PP/MFACT/(1.0,0.0) $                             

     108  LABEL    LBLFL2 $                                                       

     109  PARAM    //*AND*/KDEKA/NOUE/NOK2PP $                                    

     110  PARAM    //*AND*/MDEMA/NOUE/NOM2PP $                                    

     111  PARAM    //*AND*/KDEK2/NOGENL/NOSIMP $                                  

     112  PURGE    K2DD/NOK2PP/M2DD/NOM2PP/B2DD/NOB2PP $                          

     113  EQUIV    M2PP,M2DD/NOA/B2PP,B2DD/NOA/K2PP,K2DD/NOA/MAA,MDD/MDEMA/       
                   KAA,KDD/KDEKA $                                                

     114  COND     LBL16,NOGPDT $                                                 

     115  GKAD     USETD,GM,GO,KAA,BAA,MAA,K4AA,K2PP,M2PP,B2PP/KDD,BDD,MDD,GMD,   
                   GOD,K2DD,M2DD,B2DD/*TRANRESP*/*DISP*/*DIRECT*/C,Y,G=0.0/       
                   C,Y,W3=0.0/C,Y,W4=0.0/NOK2PP/NOM2PP/NOB2PP/                    
                   MPCF1/SINGLE/OMIT/NOUE/NOK4GG/NOBGG/                           
                   KDEK2/-1 $                                                     

     116  LABEL    LBL16 $                                                        

     117  EQUIV    M2DD,MDD/NOSIMP/B2DD,BDD/NOGPDT/K2DD,KDD/KDEK2 $               

     118  PARAM    //*ADD*/NEVER/1/0 $                                            

     119  PARAM    //*MPY*/REPEATT/1/-1 $                                         

     121  PURGE    PNLD,OUDV1,OPNL1,OUDV2,OPNL2,XYPLTTA,OPP1,OQP1,OUPV1,OES1,     
                   OEF1,OPP2,OQP2,OUPV2,OES2,OEF2,PLOTX2,XYPLTT/NEVER $           

     122  CASE     CASECC,/CASEXX/*TRAN*/S,N,REPEATT/S,N,NOLOOP $                 

     123  PARAM    //*MPY*/NCOL/0/1 $                                             
1     TRANSIENT ANALYSIS OF A 1000 CELL STRING                              /    95 SUN SOLARIS NASTRAN    / MAY 17, 95 / PAGE    13
      NASTRAN DEMONSTRATION PROBLEM NO. D09-02-2A                                                                                   

      TRAVELING WAVE PROBLEM                                                                                                        

          COSMIC / NASTRAN DMAP COMPILER - SOURCE LISTING                                                                           
                                                                                                                                    
                                                                                                                                    

     124  TRLG     CASEXX,USETD,DLT,SLT,BGPDT,SIL,CSTM,TRL,DIT,GMD,GOD,,EST,MGG,  
                   MPT/PPT,PST,PDT,PD,,TOL/S,N,NOSET/NCOL $                       

     125  EQUIV    PPT,PDT/NOSET $                                                

     126  TRD      CASEXX,TRL,NLFT,DIT,KDD,BDD,MDD,PD/UDVT,PNLD,RLODDISP/*DIRECT*/
                   NOUE/NONCUP/S,N,NCOL/C,Y,ISTART $                              

     127  VDR      CASEXX,EQDYN,USETD,UDVT,TOL,XYCDB,PNLD/OUDV1,OPNL1/            
                   *TRANRESP*/*DIRECT*/0/S,N,NOD/S,N,NOP/0 $                      

     128  COND     LBL15,NOD $                                                    

     129  SDR3     OUDV1,OPNL1,,,,/OUDV2,OPNL2,,,, $                              

     130  OFP      OUDV2,OPNL2,,,,//S,N,CARDNO $                                  

     131  XYTRAN   XYCDB,OUDV2,OPNL2,,,/XYPLTTA/*TRAN*/*DSET*/S,N,PFILE/          
                   S,N,CARDNO $                                                   

     132  XYPLOT   XYPLTTA// $                                                    

     133  LABEL    LBL15 $                                                        

     134  PARAM    //*AND*/PJUMP/NOP/JUMPPLOT $                                   

     135  COND     LBL18,PJUMP $                                                  

     136  EQUIV    UDVT,UPV/NOA $                                                 

     137  COND     LBL17,NOA $                                                    

     138  SDR1     USETD,,UDVT,,,GOD,GMD,PST,KFS,,/UPV,,QP/1/*DYNAMICS* $         

     139  LABEL    LBL17 $                                                        

     140  SDR2     CASEXX,CSTM,MPT,DIT,EQDYN,SILD,,,BGPDP,TOL,QP,UPV,EST,XYCDB,   
                   PPT,/OPP1,OQP1,OUPV1,OES1,OEF1,PUGV,,/*TRANRESP* $             

     141  SDR3     OPP1,OQP1,OUPV1,OES1,OEF1,/                                    
                   OPP2,OQP2,OUPV2,OES2,OEF2, $                                   

     142  OFP      OPP2,OQP2,OUPV2,OEF2,OES2,//S,N,CARDNO $                       

     143  SCAN     CASECC,OES2,OEF2,,/OESF2,/*RF* $                               
1     TRANSIENT ANALYSIS OF A 1000 CELL STRING                              /    95 SUN SOLARIS NASTRAN    / MAY 17, 95 / PAGE    14
      NASTRAN DEMONSTRATION PROBLEM NO. D09-02-2A                                                                                   

      TRAVELING WAVE PROBLEM                                                                                                        

          COSMIC / NASTRAN DMAP COMPILER - SOURCE LISTING                                                                           
                                                                                                                                    
                                                                                                                                    

     144  OFP      OESF2,,,,,//S,N,CARDNO $                                       

     145  COND     P2,JUMPPLOT $                                                  

     146  PLOT     PLTPAR,GPSETS,ELSETS,CASEXX,BGPDT,EQEXIN,SIP,,PUGV,GPECT,OES1, 
                   ,/PLOTX2/NSIL/LUSEP/JUMPPLOT/PLTFLG/S,N,PFILE $                

     147  PRTMSG   PLOTX2// $                                                     

     148  LABEL    P2 $                                                           

     149  XYTRAN   XYCDB,OPP2,OQP2,OUPV2,OES2,OEF2/XYPLTT/*TRAN*/*PSET*/          
                   S,N,PFILE/S,N,CARDNO $                                         

     150  XYPLOT   XYPLTT// $                                                     

     151  LABEL    LBL18 $                                                        

     155  JUMP     FINIS $                                                        

     156  LABEL    ERROR1 $                                                       

     157  PRTPARM  //-1/*DIRTRD* $                                                

     158  LABEL    ERROR3 $                                                       

     159  PRTPARM  //-3/*DIRTRD* $                                                

     160  LABEL    FINIS  $                                                       

     161  PURGE    DUMMY/ALWAYS $                                                 

     162  END      $                                                              
0          **NO ERRORS FOUND - EXECUTE NASTRAN PROGRAM**
1     TRANSIENT ANALYSIS OF A 1000 CELL STRING                              /    95 SUN SOLARIS NASTRAN    / MAY 17, 95 / PAGE    15
      NASTRAN DEMONSTRATION PROBLEM NO. D09-02-2A                                                                                   
0     TRAVELING WAVE PROBLEM                                                                                                        


                    * U T I L I T Y   M O D U L E   I N P U T *


                    INPUT DATA ECHO (DATA READ VIA FORTRAN, REMEMBER TO RIGHT ADJUST)


                    *   1  **   2  **   3  **   4  **   5  **   6  **   7  **   8  **   9  **  10  *



                         1000 1.0E+07 0.0E+00 1.0E+01 0.0E+00
0*** USER INFORMATION MESSAGE 238, TURN DIAG 38 ON FOR ADDITIONAL ELEMENT PROCESSING INFORMATION

0*** USER INFORMATION MESSAGE 3113,
     EMG MODULE PROCESSING DOUBLE PRECISION ELAS4    ELEMENTS (ELEMENT TYPE  14) STARTING WITH ID        1
0*** USER INFORMATION MESSAGE 3113,
     EMG MODULE PROCESSING DOUBLE PRECISION MASS4    ELEMENTS (ELEMENT TYPE  28) STARTING WITH ID  1000002
0*** SYSTEM WARNING MESSAGE 3022
+                                 (SEE PROG. MANUAL SEC. 4.9.7, OR USERS' MANUAL P. 6.5-3)
     DATA BLOCK CSTM     MAY BE REQUIRED AS INPUT AND IS NOT OUTPUT BY A PREVIOUS MODULE IN THE CURRENT DMAP ROUTE.
0*** SYSTEM WARNING MESSAGE 3022
+                                 (SEE PROG. MANUAL SEC. 4.9.7, OR USERS' MANUAL P. 6.5-3)
     DATA BLOCK GPST     MAY BE REQUIRED AS INPUT AND IS NOT OUTPUT BY A PREVIOUS MODULE IN THE CURRENT DMAP ROUTE.
0*** SYSTEM WARNING MESSAGE 3022
+                                 (SEE PROG. MANUAL SEC. 4.9.7, OR USERS' MANUAL P. 6.5-3)
     DATA BLOCK BGG      MAY BE REQUIRED AS INPUT AND IS NOT OUTPUT BY A PREVIOUS MODULE IN THE CURRENT DMAP ROUTE.
0*** SYSTEM WARNING MESSAGE 3022
+                                 (SEE PROG. MANUAL SEC. 4.9.7, OR USERS' MANUAL P. 6.5-3)
     DATA BLOCK CSTM     MAY BE REQUIRED AS INPUT AND IS NOT OUTPUT BY A PREVIOUS MODULE IN THE CURRENT DMAP ROUTE.
0*** SYSTEM WARNING MESSAGE 3022
+                                 (SEE PROG. MANUAL SEC. 4.9.7, OR USERS' MANUAL P. 6.5-3)
     DATA BLOCK CSTM     MAY BE REQUIRED AS INPUT AND IS NOT OUTPUT BY A PREVIOUS MODULE IN THE CURRENT DMAP ROUTE.
0*** SYSTEM WARNING MESSAGE 3022
+                                 (SEE PROG. MANUAL SEC. 4.9.7, OR USERS' MANUAL P. 6.5-3)
     DATA BLOCK SLT      MAY BE REQUIRED AS INPUT AND IS NOT OUTPUT BY A PREVIOUS MODULE IN THE CURRENT DMAP ROUTE.
0*** SYSTEM WARNING MESSAGE 3022
+                                 (SEE PROG. MANUAL SEC. 4.9.7, OR USERS' MANUAL P. 6.5-3)
     DATA BLOCK CSTM     MAY BE REQUIRED AS INPUT AND IS NOT OUTPUT BY A PREVIOUS MODULE IN THE CURRENT DMAP ROUTE.
0*** SYSTEM WARNING MESSAGE 3022
+                                 (SEE PROG. MANUAL SEC. 4.9.7, OR USERS' MANUAL P. 6.5-3)
     DATA BLOCK CSTM     MAY BE REQUIRED AS INPUT AND IS NOT OUTPUT BY A PREVIOUS MODULE IN THE CURRENT DMAP ROUTE.
1     TRANSIENT ANALYSIS OF A 1000 CELL STRING                              /    95 SUN SOLARIS NASTRAN    / MAY 17, 95 / PAGE    16
      NASTRAN DEMONSTRATION PROBLEM NO. D09-02-2A                                                                                   
0     TRAVELING WAVE PROBLEM                                                                                                        
      POINT-ID =       2
                                             D I S P L A C E M E N T   V E C T O R
 
       TIME       TYPE          T1             T2             T3             R1             R2             R3
   0.0              S      2.000000E-01                                                                                             
   5.000000E-04     S      2.000000E-01                                                                                             
   1.000000E-03     S      2.000000E-01                                                                                             
   1.500000E-03     S      2.000000E-01                                                                                             
   2.000000E-03     S      2.000000E-01                                                                                             
   2.500000E-03     S      2.000000E-01                                                                                             
   3.000000E-03     S      1.999998E-01                                                                                             
   3.500000E-03     S      1.999990E-01                                                                                             
   4.000000E-03     S      1.999956E-01                                                                                             
   4.500000E-03     S      1.999835E-01                                                                                             
   5.000000E-03     S      1.999446E-01                                                                                             
   5.500000E-03     S      1.998319E-01                                                                                             
   6.000001E-03     S      1.995340E-01                                                                                             
   6.500001E-03     S      1.988126E-01                                                                                             
   7.000001E-03     S      1.972024E-01                                                                                             
   7.500001E-03     S      1.938779E-01                                                                                             
   8.000000E-03     S      1.875103E-01                                                                                             
   8.500000E-03     S      1.761744E-01                                                                                             
   9.000001E-03     S      1.574026E-01                                                                                             
   9.500001E-03     S      1.284937E-01                                                                                             
   1.000000E-02     S      8.715715E-02                                                                                             
   1.050000E-02     S      3.246389E-02                                                                                             
   1.100000E-02     S     -3.409207E-02                                                                                             
   1.150000E-02     S     -1.077998E-01                                                                                             
   1.200000E-02     S     -1.806858E-01                                                                                             
   1.250000E-02     S     -2.426100E-01                                                                                             
   1.300000E-02     S     -2.835702E-01                                                                                             
   1.350000E-02     S     -2.967559E-01                                                                                             
   1.400000E-02     S     -2.813740E-01                                                                                             
   1.450000E-02     S     -2.440163E-01                                                                                             
   1.500000E-02     S     -1.975956E-01                                                                                             
   1.550000E-02     S     -1.577016E-01                                                                                             
   1.600000E-02     S     -1.373513E-01                                                                                             
   1.650000E-02     S     -1.420684E-01                                                                                             
   1.700000E-02     S     -1.674549E-01                                                                                             
   1.750000E-02     S     -2.006427E-01                                                                                             
   1.800000E-02     S     -2.254013E-01                                                                                             
   1.850000E-02     S     -2.289192E-01                                                                                             
   1.900000E-02     S     -2.072501E-01                                                                                             
   1.949999E-02     S     -1.667930E-01                                                                                             
   1.999999E-02     S     -1.209343E-01                                                                                             
   2.049999E-02     S     -8.337127E-02                                                                                             
   2.099999E-02     S     -6.142456E-02                                                                                             
   2.149999E-02     S     -5.281368E-02                                                                                             
   2.199999E-02     S     -4.766349E-02                                                                                             
   2.249999E-02     S     -3.473721E-02                                                                                             
   2.299999E-02     S     -8.517647E-03                                                                                             
1     TRANSIENT ANALYSIS OF A 1000 CELL STRING                              /    95 SUN SOLARIS NASTRAN    / MAY 17, 95 / PAGE    17
      NASTRAN DEMONSTRATION PROBLEM NO. D09-02-2A                                                                                   
0     TRAVELING WAVE PROBLEM                                                                                                        
      POINT-ID =       2
                                             D I S P L A C E M E N T   V E C T O R
 
       TIME       TYPE          T1             T2             T3             R1             R2             R3
   2.349999E-02     S      2.684618E-02                                                                                             
   2.399999E-02     S      5.909642E-02                                                                                             
   2.449999E-02     S      7.426479E-02                                                                                             
   2.499999E-02     S      6.447019E-02                                                                                             
1     TRANSIENT ANALYSIS OF A 1000 CELL STRING                              /    95 SUN SOLARIS NASTRAN    / MAY 17, 95 / PAGE    18
      NASTRAN DEMONSTRATION PROBLEM NO. D09-02-2A                                                                                   
0     TRAVELING WAVE PROBLEM                                                                                                        
      POINT-ID =       4
                                             D I S P L A C E M E N T   V E C T O R
 
       TIME       TYPE          T1             T2             T3             R1             R2             R3
   0.0              S      6.000000E-01                                                                                             
   5.000000E-04     S      6.000000E-01                                                                                             
   1.000000E-03     S      6.000000E-01                                                                                             
   1.500000E-03     S      6.000000E-01                                                                                             
   2.000000E-03     S      5.999995E-01                                                                                             
   2.500000E-03     S      5.999969E-01                                                                                             
   3.000000E-03     S      5.999851E-01                                                                                             
   3.500000E-03     S      5.999399E-01                                                                                             
   4.000000E-03     S      5.997904E-01                                                                                             
   4.500000E-03     S      5.993536E-01                                                                                             
   5.000000E-03     S      5.982147E-01                                                                                             
   5.500000E-03     S      5.955372E-01                                                                                             
   6.000001E-03     S      5.898156E-01                                                                                             
   6.500001E-03     S      5.786372E-01                                                                                             
   7.000001E-03     S      5.585829E-01                                                                                             
   7.500001E-03     S      5.254398E-01                                                                                             
   8.000000E-03     S      4.748784E-01                                                                                             
   8.500000E-03     S      4.036039E-01                                                                                             
   9.000001E-03     S      3.107565E-01                                                                                             
   9.500001E-03     S      1.990760E-01                                                                                             
   1.000000E-02     S      7.521704E-02                                                                                             
   1.050000E-02     S     -5.124467E-02                                                                                             
   1.100000E-02     S     -1.701098E-01                                                                                             
   1.150000E-02     S     -2.734966E-01                                                                                             
   1.200000E-02     S     -3.582492E-01                                                                                             
   1.250000E-02     S     -4.265984E-01                                                                                             
   1.300000E-02     S     -4.844747E-01                                                                                             
   1.350000E-02     S     -5.379733E-01                                                                                             
   1.400000E-02     S     -5.895417E-01                                                                                             
   1.450000E-02     S     -6.358776E-01                                                                                             
   1.500000E-02     S     -6.689011E-01                                                                                             
   1.550000E-02     S     -6.796689E-01                                                                                             
   1.600000E-02     S     -6.634405E-01                                                                                             
   1.650000E-02     S     -6.232280E-01                                                                                             
   1.700000E-02     S     -5.696836E-01                                                                                             
   1.750000E-02     S     -5.169850E-01                                                                                             
   1.800000E-02     S     -4.765571E-01                                                                                             
   1.850000E-02     S     -4.518040E-01                                                                                             
   1.900000E-02     S     -4.366774E-01                                                                                             
   1.949999E-02     S     -4.189520E-01                                                                                             
   1.999999E-02     S     -3.865716E-01                                                                                             
   2.049999E-02     S     -3.337749E-01                                                                                             
   2.099999E-02     S     -2.638749E-01                                                                                             
   2.149999E-02     S     -1.874562E-01                                                                                             
   2.199999E-02     S     -1.172585E-01                                                                                             
   2.249999E-02     S     -6.266554E-02                                                                                             
   2.299999E-02     S     -2.661881E-02                                                                                             
1     TRANSIENT ANALYSIS OF A 1000 CELL STRING                              /    95 SUN SOLARIS NASTRAN    / MAY 17, 95 / PAGE    19
      NASTRAN DEMONSTRATION PROBLEM NO. D09-02-2A                                                                                   
0     TRAVELING WAVE PROBLEM                                                                                                        
      POINT-ID =       4
                                             D I S P L A C E M E N T   V E C T O R
 
       TIME       TYPE          T1             T2             T3             R1             R2             R3
   2.349999E-02     S     -6.096438E-03                                                                                             
   2.399999E-02     S      4.815150E-03                                                                                             
   2.449999E-02     S      1.147075E-02                                                                                             
   2.499999E-02     S      1.676299E-02                                                                                             
1     TRANSIENT ANALYSIS OF A 1000 CELL STRING                              /    95 SUN SOLARIS NASTRAN    / MAY 17, 95 / PAGE    20
      NASTRAN DEMONSTRATION PROBLEM NO. D09-02-2A                                                                                   
0     TRAVELING WAVE PROBLEM                                                                                                        
      POINT-ID =       5
                                             D I S P L A C E M E N T   V E C T O R
 
       TIME       TYPE          T1             T2             T3             R1             R2             R3
   0.0              S      8.000000E-01                                                                                             
   5.000000E-04     S      8.000000E-01                                                                                             
   1.000000E-03     S      8.000000E-01                                                                                             
   1.500000E-03     S      7.999992E-01                                                                                             
   2.000000E-03     S      7.999949E-01                                                                                             
   2.500000E-03     S      7.999733E-01                                                                                             
   3.000000E-03     S      7.998867E-01                                                                                             
   3.500000E-03     S      7.995940E-01                                                                                             
   4.000000E-03     S      7.987384E-01                                                                                             
   4.500000E-03     S      7.965374E-01                                                                                             
   5.000000E-03     S      7.914917E-01                                                                                             
   5.500000E-03     S      7.810838E-01                                                                                             
   6.000001E-03     S      7.616301E-01                                                                                             
   6.500001E-03     S      7.285125E-01                                                                                             
   7.000001E-03     S      6.769831E-01                                                                                             
   7.500001E-03     S      6.035454E-01                                                                                             
   8.000000E-03     S      5.075912E-01                                                                                             
   8.500000E-03     S      3.926423E-01                                                                                             
   9.000001E-03     S      2.664276E-01                                                                                             
   9.500001E-03     S      1.393080E-01                                                                                             
   1.000000E-02     S      2.124779E-02                                                                                             
   1.050000E-02     S     -8.164138E-02                                                                                             
   1.100000E-02     S     -1.694285E-01                                                                                             
   1.150000E-02     S     -2.482141E-01                                                                                             
   1.200000E-02     S     -3.271649E-01                                                                                             
   1.250000E-02     S     -4.138179E-01                                                                                             
   1.300000E-02     S     -5.098243E-01                                                                                             
   1.350000E-02     S     -6.093398E-01                                                                                             
   1.400000E-02     S     -7.010622E-01                                                                                             
   1.450000E-02     S     -7.730126E-01                                                                                             
   1.500000E-02     S     -8.175996E-01                                                                                             
   1.550000E-02     S     -8.342679E-01                                                                                             
   1.600000E-02     S     -8.283781E-01                                                                                             
   1.650000E-02     S     -8.071674E-01                                                                                             
   1.700000E-02     S     -7.753937E-01                                                                                             
   1.750000E-02     S     -7.334365E-01                                                                                             
   1.800000E-02     S     -6.790191E-01                                                                                             
   1.850000E-02     S     -6.112984E-01                                                                                             
   1.900000E-02     S     -5.343794E-01                                                                                             
   1.949999E-02     S     -4.575346E-01                                                                                             
   1.999999E-02     S     -3.914919E-01                                                                                             
   2.049999E-02     S     -3.428312E-01                                                                                             
   2.099999E-02     S     -3.100227E-01                                                                                             
   2.149999E-02     S     -2.838856E-01                                                                                             
   2.199999E-02     S     -2.525902E-01                                                                                             
   2.249999E-02     S     -2.084266E-01                                                                                             
   2.299999E-02     S     -1.523059E-01                                                                                             
1     TRANSIENT ANALYSIS OF A 1000 CELL STRING                              /    95 SUN SOLARIS NASTRAN    / MAY 17, 95 / PAGE    21
      NASTRAN DEMONSTRATION PROBLEM NO. D09-02-2A                                                                                   
0     TRAVELING WAVE PROBLEM                                                                                                        
      POINT-ID =       5
                                             D I S P L A C E M E N T   V E C T O R
 
       TIME       TYPE          T1             T2             T3             R1             R2             R3
   2.349999E-02     S     -9.323521E-02                                                                                             
   2.399999E-02     S     -4.307547E-02                                                                                             
   2.449999E-02     S     -9.814604E-03                                                                                             
   2.499999E-02     S      6.520586E-03                                                                                             
1     TRANSIENT ANALYSIS OF A 1000 CELL STRING                              /    95 SUN SOLARIS NASTRAN    / MAY 17, 95 / PAGE    22
      NASTRAN DEMONSTRATION PROBLEM NO. D09-02-2A                                                                                   
0     TRAVELING WAVE PROBLEM                                                                                                        
      POINT-ID =       6
                                             D I S P L A C E M E N T   V E C T O R
 
       TIME       TYPE          T1             T2             T3             R1             R2             R3
   0.0              S      1.000000E+00                                                                                             
   5.000000E-04     S      9.999999E-01                                                                                             
   1.000000E-03     S      9.999991E-01                                                                                             
   1.500000E-03     S      9.999921E-01                                                                                             
   2.000000E-03     S      9.999532E-01                                                                                             
   2.500000E-03     S      9.997867E-01                                                                                             
   3.000000E-03     S      9.992087E-01                                                                                             
   3.500000E-03     S      9.975169E-01                                                                                             
   4.000000E-03     S      9.932414E-01                                                                                             
   4.500000E-03     S      9.837537E-01                                                                                             
   5.000000E-03     S      9.650443E-01                                                                                             
   5.500000E-03     S      9.319757E-01                                                                                             
   6.000001E-03     S      8.792740E-01                                                                                             
   6.500001E-03     S      8.032469E-01                                                                                             
   7.000001E-03     S      7.037528E-01                                                                                             
   7.500001E-03     S      5.855225E-01                                                                                             
   8.000000E-03     S      4.578661E-01                                                                                             
   8.500000E-03     S      3.323105E-01                                                                                             
   9.000001E-03     S      2.187158E-01                                                                                             
   9.500001E-03     S      1.214363E-01                                                                                             
   1.000000E-02     S      3.747671E-02                                                                                             
   1.050000E-02     S     -4.207973E-02                                                                                             
   1.100000E-02     S     -1.276788E-01                                                                                             
   1.150000E-02     S     -2.259402E-01                                                                                             
   1.200000E-02     S     -3.361223E-01                                                                                             
   1.250000E-02     S     -4.504136E-01                                                                                             
   1.300000E-02     S     -5.579979E-01                                                                                             
   1.350000E-02     S     -6.506143E-01                                                                                             
   1.400000E-02     S     -7.263325E-01                                                                                             
   1.450000E-02     S     -7.892278E-01                                                                                             
   1.500000E-02     S     -8.451061E-01                                                                                             
   1.550000E-02     S     -8.959538E-01                                                                                             
   1.600000E-02     S     -9.367247E-01                                                                                             
   1.650000E-02     S     -9.567593E-01                                                                                             
   1.700000E-02     S     -9.452867E-01                                                                                             
   1.750000E-02     S     -8.978496E-01                                                                                             
   1.800000E-02     S     -8.198157E-01                                                                                             
   1.850000E-02     S     -7.248560E-01                                                                                             
   1.900000E-02     S     -6.293044E-01                                                                                             
   1.949999E-02     S     -5.457208E-01                                                                                             
   1.999999E-02     S     -4.792122E-01                                                                                             
   2.049999E-02     S     -4.280668E-01                                                                                             
   2.099999E-02     S     -3.874177E-01                                                                                             
   2.149999E-02     S     -3.529460E-01                                                                                             
   2.199999E-02     S     -3.221437E-01                                                                                             
   2.249999E-02     S     -2.929160E-01                                                                                             
   2.299999E-02     S     -2.615582E-01                                                                                             
1     TRANSIENT ANALYSIS OF A 1000 CELL STRING                              /    95 SUN SOLARIS NASTRAN    / MAY 17, 95 / PAGE    23
      NASTRAN DEMONSTRATION PROBLEM NO. D09-02-2A                                                                                   
0     TRAVELING WAVE PROBLEM                                                                                                        
      POINT-ID =       6
                                             D I S P L A C E M E N T   V E C T O R
 
       TIME       TYPE          T1             T2             T3             R1             R2             R3
   2.349999E-02     S     -2.226805E-01                                                                                             
   2.399999E-02     S     -1.720253E-01                                                                                             
   2.449999E-02     S     -1.105208E-01                                                                                             
   2.499999E-02     S     -4.634988E-02                                                                                             
1     TRANSIENT ANALYSIS OF A 1000 CELL STRING                              /    95 SUN SOLARIS NASTRAN    / MAY 17, 95 / PAGE    24
      NASTRAN DEMONSTRATION PROBLEM NO. D09-02-2A                                                                                   
0     TRAVELING WAVE PROBLEM                                                                                                        
      POINT-ID =      10
                                             D I S P L A C E M E N T   V E C T O R
 
       TIME       TYPE          T1             T2             T3             R1             R2             R3
   0.0              S      1.800000E+00                                                                                             
   5.000000E-04     S      1.797927E+00                                                                                             
   1.000000E-03     S      1.787102E+00                                                                                             
   1.500000E-03     S      1.755303E+00                                                                                             
   2.000000E-03     S      1.690605E+00                                                                                             
   2.500000E-03     S      1.589987E+00                                                                                             
   3.000000E-03     S      1.464497E+00                                                                                             
   3.500000E-03     S      1.334881E+00                                                                                             
   4.000000E-03     S      1.220342E+00                                                                                             
   4.500000E-03     S      1.127921E+00                                                                                             
   5.000000E-03     S      1.049639E+00                                                                                             
   5.500000E-03     S      9.691646E-01                                                                                             
   6.000001E-03     S      8.733443E-01                                                                                             
   6.500001E-03     S      7.607322E-01                                                                                             
   7.000001E-03     S      6.416159E-01                                                                                             
   7.500001E-03     S      5.300467E-01                                                                                             
   8.000000E-03     S      4.338370E-01                                                                                             
   8.500000E-03     S      3.495873E-01                                                                                             
   9.000001E-03     S      2.659540E-01                                                                                             
   9.500001E-03     S      1.724412E-01                                                                                             
   1.000000E-02     S      6.725135E-02                                                                                             
   1.050000E-02     S     -4.130216E-02                                                                                             
   1.100000E-02     S     -1.405079E-01                                                                                             
   1.150000E-02     S     -2.217086E-01                                                                                             
   1.200000E-02     S     -2.853948E-01                                                                                             
   1.250000E-02     S     -3.395713E-01                                                                                             
   1.300000E-02     S     -3.930537E-01                                                                                             
   1.350000E-02     S     -4.489467E-01                                                                                             
   1.400000E-02     S     -5.031651E-01                                                                                             
   1.450000E-02     S     -5.488954E-01                                                                                             
   1.500000E-02     S     -5.833790E-01                                                                                             
   1.550000E-02     S     -6.116607E-01                                                                                             
   1.600000E-02     S     -6.442282E-01                                                                                             
   1.650000E-02     S     -6.900287E-01                                                                                             
   1.700000E-02     S     -7.498215E-01                                                                                             
   1.750000E-02     S     -8.146790E-01                                                                                             
   1.800000E-02     S     -8.708181E-01                                                                                             
   1.850000E-02     S     -9.074854E-01                                                                                             
   1.900000E-02     S     -9.225335E-01                                                                                             
   1.949999E-02     S     -9.220529E-01                                                                                             
   1.999999E-02     S     -9.146458E-01                                                                                             
   2.049999E-02     S     -9.045979E-01                                                                                             
   2.099999E-02     S     -8.887582E-01                                                                                             
   2.149999E-02     S     -8.591183E-01                                                                                             
   2.199999E-02     S     -8.090271E-01                                                                                             
   2.249999E-02     S     -7.385848E-01                                                                                             
   2.299999E-02     S     -6.556048E-01                                                                                             
1     TRANSIENT ANALYSIS OF A 1000 CELL STRING                              /    95 SUN SOLARIS NASTRAN    / MAY 17, 95 / PAGE    25
      NASTRAN DEMONSTRATION PROBLEM NO. D09-02-2A                                                                                   
0     TRAVELING WAVE PROBLEM                                                                                                        
      POINT-ID =      10
                                             D I S P L A C E M E N T   V E C T O R
 
       TIME       TYPE          T1             T2             T3             R1             R2             R3
   2.349999E-02     S     -5.718018E-01                                                                                             
   2.399999E-02     S     -4.970895E-01                                                                                             
   2.449999E-02     S     -4.357861E-01                                                                                             
   2.499999E-02     S     -3.866993E-01                                                                                             
1     TRANSIENT ANALYSIS OF A 1000 CELL STRING                              /    95 SUN SOLARIS NASTRAN    / MAY 17, 95 / PAGE    26
      NASTRAN DEMONSTRATION PROBLEM NO. D09-02-2A                                                                                   
0     TRAVELING WAVE PROBLEM                                                                                                        
      POINT-ID =      12
                                             D I S P L A C E M E N T   V E C T O R
 
       TIME       TYPE          T1             T2             T3             R1             R2             R3
   0.0              S      1.800000E+00                                                                                             
   5.000000E-04     S      1.797927E+00                                                                                             
   1.000000E-03     S      1.787102E+00                                                                                             
   1.500000E-03     S      1.755303E+00                                                                                             
   2.000000E-03     S      1.690605E+00                                                                                             
   2.500000E-03     S      1.589987E+00                                                                                             
   3.000000E-03     S      1.464497E+00                                                                                             
   3.500000E-03     S      1.334882E+00                                                                                             
   4.000000E-03     S      1.220344E+00                                                                                             
   4.500000E-03     S      1.127929E+00                                                                                             
   5.000000E-03     S      1.049666E+00                                                                                             
   5.500000E-03     S      9.692486E-01                                                                                             
   6.000001E-03     S      8.735773E-01                                                                                             
   6.500001E-03     S      7.613259E-01                                                                                             
   7.000001E-03     S      6.430146E-01                                                                                             
   7.500001E-03     S      5.331078E-01                                                                                             
   8.000000E-03     S      4.400819E-01                                                                                             
   8.500000E-03     S      3.615001E-01                                                                                             
   9.000001E-03     S      2.872527E-01                                                                                             
   9.500001E-03     S      2.081943E-01                                                                                             
   1.000000E-02     S      1.236727E-01                                                                                             
   1.050000E-02     S      4.246569E-02                                                                                             
   1.100000E-02     S     -2.346244E-02                                                                                             
   1.150000E-02     S     -6.781024E-02                                                                                             
   1.200000E-02     S     -9.505592E-02                                                                                             
[...]
   1.400000E-02     S      0.0                                                                                                      
   1.450000E-02     S      0.0                                                                                                      
   1.500000E-02     S      0.0                                                                                                      
   1.550000E-02     S      0.0                                                                                                      
   1.600000E-02     S      0.0                                                                                                      
   1.650000E-02     S      0.0                                                                                                      
   1.700000E-02     S      0.0                                                                                                      
   1.750000E-02     S      0.0                                                                                                      
   1.800000E-02     S      0.0                                                                                                      
   1.850000E-02     S      0.0                                                                                                      
   1.900000E-02     S      0.0                                                                                                      
   1.949999E-02     S      0.0                                                                                                      
   1.999999E-02     S      0.0                                                                                                      
   2.049999E-02     S      0.0                                                                                                      
   2.099999E-02     S      0.0                                                                                                      
   2.149999E-02     S      0.0                                                                                                      
   2.199999E-02     S      0.0                                                                                                      
   2.249999E-02     S      0.0                                                                                                      
   2.299999E-02     S      0.0                                                                                                      
1     TRANSIENT ANALYSIS OF A 1000 CELL STRING                              /    95 SUN SOLARIS NASTRAN    / MAY 17, 95 / PAGE    91
      NASTRAN DEMONSTRATION PROBLEM NO. D09-02-2A                                                                                   
0     TRAVELING WAVE PROBLEM                                                                                                        
      POINT-ID =     100
                                                V E L O C I T Y    V E C T O R
 
       TIME       TYPE          T1             T2             T3             R1             R2             R3
   2.349999E-02     S      0.0                                                                                                      
   2.399999E-02     S      1.286378E-38                                                                                             
   2.449999E-02     S      5.984403E-38                                                                                             
   2.499999E-02     S      2.730881E-37                                                                                             
1     TRANSIENT ANALYSIS OF A 1000 CELL STRING                              /    95 SUN SOLARIS NASTRAN    / MAY 17, 95 / PAGE    92
      NASTRAN DEMONSTRATION PROBLEM NO. D09-02-2A                                                                                   
0     TRAVELING WAVE PROBLEM                                                                                                        
      POINT-ID =     200
                                                V E L O C I T Y    V E C T O R
 
       TIME       TYPE          T1             T2             T3             R1             R2             R3
   0.0              S      0.0                                                                                                      
   5.000000E-04     S      0.0                                                                                                      
   1.000000E-03     S      0.0                                                                                                      
   1.500000E-03     S      0.0                                                                                                      
   2.000000E-03     S      0.0                                                                                                      
   2.500000E-03     S      0.0                                                                                                      
   3.000000E-03     S      0.0                                                                                                      
   3.500000E-03     S      0.0                                                                                                      
   4.000000E-03     S      0.0                                                                                                      
   4.500000E-03     S      0.0                                                                                                      
   5.000000E-03     S      0.0                                                                                                      
   5.500000E-03     S      0.0                                                                                                      
   6.000001E-03     S      0.0                                                                                                      
   6.500001E-03     S      0.0                                                                                                      
   7.000001E-03     S      0.0                                                                                                      
   7.500001E-03     S      0.0                                                                                                      
   8.000000E-03     S      0.0                                                                                                      
   8.500000E-03     S      0.0                                                                                                      
   9.000001E-03     S      0.0                                                                                                      
   9.500001E-03     S      0.0                                                                                                      
   1.000000E-02     S      0.0                                                                                                      
   1.050000E-02     S      0.0                                                                                                      
   1.100000E-02     S      0.0                                                                                                      
   1.150000E-02     S      0.0                                                                                                      
   1.200000E-02     S      0.0                                                                                                      
   1.250000E-02     S      0.0                                                                                                      
   1.300000E-02     S      0.0                                                                                                      
   1.350000E-02     S      0.0                                                                                                      
   1.400000E-02     S      0.0                                                                                                      
   1.450000E-02     S      0.0                                                                                                      
   1.500000E-02     S      0.0                                                                                                      
   1.550000E-02     S      0.0                                                                                                      
   1.600000E-02     S      0.0                                                                                                      
   1.650000E-02     S      0.0                                                                                                      
   1.700000E-02     S      0.0                                                                                                      
   1.750000E-02     S      0.0                                                                                                      
   1.800000E-02     S      0.0                                                                                                      
   1.850000E-02     S      0.0                                                                                                      
   1.900000E-02     S      0.0                                                                                                      
   1.949999E-02     S      0.0                                                                                                      
   1.999999E-02     S      0.0                                                                                                      
   2.049999E-02     S      0.0                                                                                                      
   2.099999E-02     S      0.0                                                                                                      
   2.149999E-02     S      0.0                                                                                                      
   2.199999E-02     S      0.0                                                                                                      
   2.249999E-02     S      0.0                                                                                                      
   2.299999E-02     S      0.0                                                                                                      
1     TRANSIENT ANALYSIS OF A 1000 CELL STRING                              /    95 SUN SOLARIS NASTRAN    / MAY 17, 95 / PAGE    93
      NASTRAN DEMONSTRATION PROBLEM NO. D09-02-2A                                                                                   
0     TRAVELING WAVE PROBLEM                                                                                                        
      POINT-ID =     200
                                                V E L O C I T Y    V E C T O R
 
       TIME       TYPE          T1             T2             T3             R1             R2             R3
   2.349999E-02     S      0.0                                                                                                      
   2.399999E-02     S      0.0                                                                                                      
   2.449999E-02     S      0.0                                                                                                      
   2.499999E-02     S      0.0                                                                                                      
1     TRANSIENT ANALYSIS OF A 1000 CELL STRING                              /    95 SUN SOLARIS NASTRAN    / MAY 17, 95 / PAGE    94
      NASTRAN DEMONSTRATION PROBLEM NO. D09-02-2A                                                                                   
0     TRAVELING WAVE PROBLEM                                                                                                        
      POINT-ID =     500
                                                V E L O C I T Y    V E C T O R
 
       TIME       TYPE          T1             T2             T3             R1             R2             R3
   0.0              S      0.0                                                                                                      
   5.000000E-04     S      0.0                                                                                                      
   1.000000E-03     S      0.0                                                                                                      
   1.500000E-03     S      0.0                                                                                                      
   2.000000E-03     S      0.0                                                                                                      
   2.500000E-03     S      0.0                                                                                                      
   3.000000E-03     S      0.0                                                                                                      
   3.500000E-03     S      0.0                                                                                                      
   4.000000E-03     S      0.0                                                                                                      
   4.500000E-03     S      0.0                                                                                                      
   5.000000E-03     S      0.0                                                                                                      
   5.500000E-03     S      0.0                                                                                                      
   6.000001E-03     S      0.0                                                                                                      
   6.500001E-03     S      0.0                                                                                                      
   7.000001E-03     S      0.0                                                                                                      
   7.500001E-03     S      0.0                                                                                                      
   8.000000E-03     S      0.0                                                                                                      
   8.500000E-03     S      0.0                                                                                                      
   9.000001E-03     S      0.0                                                                                                      
   9.500001E-03     S      0.0                                                                                                      
   1.000000E-02     S      0.0                                                                                                      
   1.050000E-02     S      0.0                                                                                                      
   1.100000E-02     S      0.0                                                                                                      
   1.150000E-02     S      0.0                                                                                                      
   1.200000E-02     S      0.0                                                                                                      
   1.250000E-02     S      0.0                                                                                                      
   1.300000E-02     S      0.0                                                                                                      
   1.350000E-02     S      0.0                                                                                                      
   1.400000E-02     S      0.0                                                                                                      
   1.450000E-02     S      0.0                                                                                                      
   1.500000E-02     S      0.0                                                                                                      
   1.550000E-02     S      0.0                                                                                                      
   1.600000E-02     S      0.0                                                                                                      
   1.650000E-02     S      0.0                                                                                                      
   1.700000E-02     S      0.0                                                                                                      
   1.750000E-02     S      0.0                                                                                                      
   1.800000E-02     S      0.0                                                                                                      
   1.850000E-02     S      0.0                                                                                                      
   1.900000E-02     S      0.0                                                                                                      
   1.949999E-02     S      0.0                                                                                                      
   1.999999E-02     S      0.0                                                                                                      
   2.049999E-02     S      0.0                                                                                                      
   2.099999E-02     S      0.0                                                                                                      
   2.149999E-02     S      0.0                                                                                                      
   2.199999E-02     S      0.0                                                                                                      
   2.249999E-02     S      0.0                                                                                                      
   2.299999E-02     S      0.0                                                                                                      
1     TRANSIENT ANALYSIS OF A 1000 CELL STRING                              /    95 SUN SOLARIS NASTRAN    / MAY 17, 95 / PAGE    95
      NASTRAN DEMONSTRATION PROBLEM NO. D09-02-2A                                                                                   
0     TRAVELING WAVE PROBLEM                                                                                                        
      POINT-ID =     500
                                                V E L O C I T Y    V E C T O R
 
       TIME       TYPE          T1             T2             T3             R1             R2             R3
   2.349999E-02     S      0.0                                                                                                      
   2.399999E-02     S      0.0                                                                                                      
   2.449999E-02     S      0.0                                                                                                      
   2.499999E-02     S      0.0                                                                                                      




                                        * * * END OF JOB * * *
1
 JOB TITLE =  TRANSIENT ANALYSIS OF A 1000 CELL STRING                           
 DATE:  5/17/95
 END TIME: 16: 8:13
 TOTAL WALL CLOCK TIME      3 SEC.
 
