





                                  ****
                                *      *
                               *        *
                               *  N A S T R A N
                               *        *
                                *      *
                                  ****


                             SUN COMPUTER SYSTEMS    
                                SOLARIS VERSION

                          SYSTEM RELEASE -  1995 ED.

                                DISTRIBUTED BY

         COMPUTER SOFTWARE MANAGEMENT AND INFORMATION CENTER (COSMIC)
                 UNIVERSITY OF GEORGIA, ATHENS, GEORGIA 30602
                 PHONE: (706)542-3265      FAX: (706)542-4807
1                                                                           /    95 SUN SOLARIS NASTRAN    / MAY 17, 95 / PAGE     2
                                                                                                                                    
0                                                                                                                                   
                                                                                                         
                                                                                                         
                         INSTALLATION CENTER USER INFORMATION GIVEN IN THIS SECTION                      
                                                                                                         
                                     *********************************************                       
                                     *                                           *                       
                                     *  PLEASE READ THE COMMENT IN DEMO PROBLEM  *                       
                                     *  D01002A ABOUT SYSTEM TIMING CONSTANTS    *                       
                                     *                                           *                       
                                     *********************************************                       
                                                                                                         
                         ===X=    TOP OF PAGE REQUEST IF 'X' IS REPLACED BY '='                          
                                                                                                         
1                                                                           /    95 SUN SOLARIS NASTRAN    / MAY 17, 95 / PAGE     3
                                                                                                                                    
0                                                                                                                                   
0*** USER INFORMATION MESSAGE 225, GINO TIME CONSTANTS ARE BEING COMPUTED
     (SEE NASINFO FILE FOR ELIMINATION OF THESE COMPUTATIONS)
1                                                                           /    95 SUN SOLARIS NASTRAN    / MAY 17, 95 / PAGE     4
                                                                                                                                    
0        N A S T R A N    E X E C U T I V E    C O N T R O L    D E C K    E C H O                                                  
0                                                                                                                                   
                                                                                                                                    
                                                                                                                                    
     ID    D09021A,NASTRAN                                                           
     TIME  26                                                                        
     APP   DISP                                                                      
     SOL   9,1                                                                       
     CEND                                                                            


0*** USER INFORMATION MESSAGE, TURN DIAG 48 ON FOR NASTRAN RELEASE NEWS, DIAG DEFINITION, NEW DMAP
         MODULES AND NEW BULKDATA CARDS INFORMATION
1     TRANSIENT ANALYSIS OF A 1000 CELL STRING                              /    95 SUN SOLARIS NASTRAN    / MAY 17, 95 / PAGE     5
      NASTRAN DEMONSTRATION PROBLEM NO. D09-02-1A                                                                                   
0     TRAVELING WAVE PROBLEM                                                                                                        
0                                        C A S E    C O N T R O L   D E C K   E C H O                                               
                 CARD                                                                                                               
                 COUNT                                                                                                              
                  1      TITLE    = TRANSIENT ANALYSIS OF A 1000 CELL STRING                             
                  2      SUBTITLE = NASTRAN DEMONSTRATION PROBLEM NO. D09-02-1A                          
                  3         LABEL = TRAVELING WAVE PROBLEM                                               
                  4         TSTEP = 9                                                                    
                  5            IC = 9                                                                    
                  6      OUTPUT                                                                          
                  7         SET 1 = 2,4,5,6,10,12,14,16,18,20,22,24,26,28,30,40,50, 100,200,500          
                  8         DISPLACEMENT = 1                                                             
                  9         VELOCITY = 1                                                                 
                 10      BEGIN BULK                                                                      


                        (NO. OF UNSORTED BULK DATA CARDS READ =  1022, INCLUDING   0 COMMENT CARDS)
0*** USER INFORMATION MESSAGE 207, BULK DATA DECK IS NOT SORTED. NASTRAN WILL RE-ORDER THE INPUT DECK.
1     TRANSIENT ANALYSIS OF A 1000 CELL STRING                              /    95 SUN SOLARIS NASTRAN    / MAY 17, 95 / PAGE     6
      NASTRAN DEMONSTRATION PROBLEM NO. D09-02-1A                                                                                   
0     TRAVELING WAVE PROBLEM                                                                                                        
0                                                 S O R T E D   B U L K    D A T A    E C H O                                       
                     CARD                                                                                                           
                     COUNT        ---1--- +++2+++ ---3--- +++4+++ ---5--- +++6+++ ---7--- +++8+++ ---9--- +++10+++                  
                    1-        CELAS3  1       101     0       2       2       101     2       3               
                    2-        CELAS3  3       101     3       4       4       101     4       5               
                    3-        CELAS3  5       101     5       6       6       101     6       7               
                    4-        CELAS3  7       101     7       8       8       101     8       9               
                    5-        CELAS3  9       101     9       10      10      101     10      11              
                    6-        CELAS3  11      101     11      12      12      101     12      13              
                    7-        CELAS3  13      101     13      14      14      101     14      15              
                    8-        CELAS3  15      101     15      16      16      101     16      17              
                    9-        CELAS3  17      101     17      18      18      101     18      19              
                   10-        CELAS3  19      101     19      20      20      101     20      21              
                   11-        CELAS3  21      101     21      22      22      101     22      23              
                   12-        CELAS3  23      101     23      24      24      101     24      25              
                   13-        CELAS3  25      101     25      26      26      101     26      27              
                   14-        CELAS3  27      101     27      28      28      101     28      29              
                   15-        CELAS3  29      101     29      30      30      101     30      31              
                   16-        CELAS3  31      101     31      32      32      101     32      33              
                   17-        CELAS3  33      101     33      34      34      101     34      35              
                   18-        CELAS3  35      101     35      36      36      101     36      37              
                   19-        CELAS3  37      101     37      38      38      101     38      39              
                   20-        CELAS3  39      101     39      40      40      101     40      41              
                   21-        CELAS3  41      101     41      42      42      101     42      43              
                   22-        CELAS3  43      101     43      44      44      101     44      45              
                   23-        CELAS3  45      101     45      46      46      101     46      47              
                   24-        CELAS3  47      101     47      48      48      101     48      49              
                   25-        CELAS3  49      101     49      50      50      101     50      51              
                   26-        CELAS3  51      101     51      52      52      101     52      53              
                   27-        CELAS3  53      101     53      54      54      101     54      55              
                   28-        CELAS3  55      101     55      56      56      101     56      57              
                   29-        CELAS3  57      101     57      58      58      101     58      59              
                   30-        CELAS3  59      101     59      60      60      101     60      61              
                   31-        CELAS3  61      101     61      62      62      101     62      63              
                   32-        CELAS3  63      101     63      64      64      101     64      65              
                   33-        CELAS3  65      101     65      66      66      101     66      67              
                   34-        CELAS3  67      101     67      68      68      101     68      69              
                   35-        CELAS3  69      101     69      70      70      101     70      71              
                   36-        CELAS3  71      101     71      72      72      101     72      73              
                   37-        CELAS3  73      101     73      74      74      101     74      75              
                   38-        CELAS3  75      101     75      76      76      101     76      77              
                   39-        CELAS3  77      101     77      78      78      101     78      79              
                   40-        CELAS3  79      101     79      80      80      101     80      81              
                   41-        CELAS3  81      101     81      82      82      101     82      83              
                   42-        CELAS3  83      101     83      84      84      101     84      85              
                   43-        CELAS3  85      101     85      86      86      101     86      87              
                   44-        CELAS3  87      101     87      88      88      101     88      89              
                   45-        CELAS3  89      101     89      90      90      101     90      91              
                   46-        CELAS3  91      101     91      92      92      101     92      93              
                   47-        CELAS3  93      101     93      94      94      101     94      95              
1     TRANSIENT ANALYSIS OF A 1000 CELL STRING                              /    95 SUN SOLARIS NASTRAN    / MAY 17, 95 / PAGE     7
      NASTRAN DEMONSTRATION PROBLEM NO. D09-02-1A                                                                                   

      TRAVELING WAVE PROBLEM                                                                                                        

                                                  S O R T E D   B U L K    D A T A    E C H O                                       
                     CARD                                                                                                           
                     COUNT        ---1--- +++2+++ ---3--- +++4+++ ---5--- +++6+++ ---7--- +++8+++ ---9--- +++10+++                  
                   48-        CELAS3  95      101     95      96      96      101     96      97              
                   49-        CELAS3  97      101     97      98      98      101     98      99              
                   50-        CELAS3  99      101     99      100     100     101     100     101             
                   51-        CELAS3  101     101     101     102     102     101     102     103             
                   52-        CELAS3  103     101     103     104     104     101     104     105             
                   53-        CELAS3  105     101     105     106     106     101     106     107             
                   54-        CELAS3  107     101     107     108     108     101     108     109             
                   55-        CELAS3  109     101     109     110     110     101     110     111             
                   56-        CELAS3  111     101     111     112     112     101     112     113             
                   57-        CELAS3  113     101     113     114     114     101     114     115             
                   58-        CELAS3  115     101     115     116     116     101     116     117             
                   59-        CELAS3  117     101     117     118     118     101     118     119             
                   60-        CELAS3  119     101     119     120     120     101     120     121             
                   61-        CELAS3  121     101     121     122     122     101     122     123             
                   62-        CELAS3  123     101     123     124     124     101     124     125             
                   63-        CELAS3  125     101     125     126     126     101     126     127             
                   64-        CELAS3  127     101     127     128     128     101     128     129             
                   65-        CELAS3  129     101     129     130     130     101     130     131             
                   66-        CELAS3  131     101     131     132     132     101     132     133             
                   67-        CELAS3  133     101     133     134     134     101     134     135             
                   68-        CELAS3  135     101     135     136     136     101     136     137             
                   69-        CELAS3  137     101     137     138     138     101     138     139             
                   70-        CELAS3  139     101     139     140     140     101     140     141             
                   71-        CELAS3  141     101     141     142     142     101     142     143             
                   72-        CELAS3  143     101     143     144     144     101     144     145             
                   73-        CELAS3  145     101     145     146     146     101     146     147             
                   74-        CELAS3  147     101     147     148     148     101     148     149             
                   75-        CELAS3  149     101     149     150     150     101     150     151             
                   76-        CELAS3  151     101     151     152     152     101     152     153             
                   77-        CELAS3  153     101     153     154     154     101     154     155             
                   78-        CELAS3  155     101     155     156     156     101     156     157             
                   79-        CELAS3  157     101     157     158     158     101     158     159             
                   80-        CELAS3  159     101     159     160     160     101     160     161             
                   81-        CELAS3  161     101     161     162     162     101     162     163             
                   82-        CELAS3  163     101     163     164     164     101     164     165             
                   83-        CELAS3  165     101     165     166     166     101     166     167             
                   84-        CELAS3  167     101     167     168     168     101     168     169             
                   85-        CELAS3  169     101     169     170     170     101     170     171             
                   86-        CELAS3  171     101     171     172     172     101     172     173             
                   87-        CELAS3  173     101     173     174     174     101     174     175             
                   88-        CELAS3  175     101     175     176     176     101     176     177             
                   89-        CELAS3  177     101     177     178     178     101     178     179             
                   90-        CELAS3  179     101     179     180     180     101     180     181             
                   91-        CELAS3  181     101     181     182     182     101     182     183             
                   92-        CELAS3  183     101     183     184     184     101     184     185             
                   93-        CELAS3  185     101     185     186     186     101     186     187             
                   94-        CELAS3  187     101     187     188     188     101     188     189             
1     TRANSIENT ANALYSIS OF A 1000 CELL STRING                              /    95 SUN SOLARIS NASTRAN    / MAY 17, 95 / PAGE     8
      NASTRAN DEMONSTRATION PROBLEM NO. D09-02-1A                                                                                   

      TRAVELING WAVE PROBLEM                                                                                                        

                                                  S O R T E D   B U L K    D A T A    E C H O                                       
                     CARD                                                                                                           
                     COUNT        ---1--- +++2+++ ---3--- +++4+++ ---5--- +++6+++ ---7--- +++8+++ ---9--- +++10+++                  
                   95-        CELAS3  189     101     189     190     190     101     190     191             
                   96-        CELAS3  191     101     191     192     192     101     192     193             
                   97-        CELAS3  193     101     193     194     194     101     194     195             
                   98-        CELAS3  195     101     195     196     196     101     196     197             
                   99-        CELAS3  197     101     197     198     198     101     198     199             
                  100-        CELAS3  199     101     199     200     200     101     200     201             
                  101-        CELAS3  201     101     201     202     202     101     202     203             
                  102-        CELAS3  203     101     203     204     204     101     204     205             
                  103-        CELAS3  205     101     205     206     206     101     206     207             
                  104-        CELAS3  207     101     207     208     208     101     208     209             
                  105-        CELAS3  209     101     209     210     210     101     210     211             
                  106-        CELAS3  211     101     211     212     212     101     212     213             
                  107-        CELAS3  213     101     213     214     214     101     214     215             
                  108-        CELAS3  215     101     215     216     216     101     216     217             
                  109-        CELAS3  217     101     217     218     218     101     218     219             
                  110-        CELAS3  219     101     219     220     220     101     220     221             
                  111-        CELAS3  221     101     221     222     222     101     222     223             
                  112-        CELAS3  223     101     223     224     224     101     224     225             
                  113-        CELAS3  225     101     225     226     226     101     226     227             
                  114-        CELAS3  227     101     227     228     228     101     228     229             
                  115-        CELAS3  229     101     229     230     230     101     230     231             
                  116-        CELAS3  231     101     231     232     232     101     232     233             
                  117-        CELAS3  233     101     233     234     234     101     234     235             
                  118-        CELAS3  235     101     235     236     236     101     236     237             
                  119-        CELAS3  237     101     237     238     238     101     238     239             
                  120-        CELAS3  239     101     239     240     240     101     240     241             
                  121-        CELAS3  241     101     241     242     242     101     242     243             
                  122-        CELAS3  243     101     243     244     244     101     244     245             
                  123-        CELAS3  245     101     245     246     246     101     246     247             
                  124-        CELAS3  247     101     247     248     248     101     248     249             
                  125-        CELAS3  249     101     249     250     250     101     250     251             
                  126-        CELAS3  251     101     251     252     252     101     252     253             
                  127-        CELAS3  253     101     253     254     254     101     254     255             
                  128-        CELAS3  255     101     255     256     256     101     256     257             
                  129-        CELAS3  257     101     257     258     258     101     258     259             
                  130-        CELAS3  259     101     259     260     260     101     260     261             
                  131-        CELAS3  261     101     261     262     262     101     262     263             
                  132-        CELAS3  263     101     263     264     264     101     264     265             
                  133-        CELAS3  265     101     265     266     266     101     266     267             
                  134-        CELAS3  267     101     267     268     268     101     268     269             
                  135-        CELAS3  269     101     269     270     270     101     270     271             
                  136-        CELAS3  271     101     271     272     272     101     272     273             
                  137-        CELAS3  273     101     273     274     274     101     274     275             
                  138-        CELAS3  275     101     275     276     276     101     276     277             
                  139-        CELAS3  277     101     277     278     278     101     278     279             
                  140-        CELAS3  279     101     279     280     280     101     280     281             
                  141-        CELAS3  281     101     281     282     282     101     282     283             
1     TRANSIENT ANALYSIS OF A 1000 CELL STRING                              /    95 SUN SOLARIS NASTRAN    / MAY 17, 95 / PAGE     9
      NASTRAN DEMONSTRATION PROBLEM NO. D09-02-1A                                                                                   

      TRAVELING WAVE PROBLEM                                                                                                        

                                                  S O R T E D   B U L K    D A T A    E C H O                                       
                     CARD                                                                                                           
                     COUNT        ---1--- +++2+++ ---3--- +++4+++ ---5--- +++6+++ ---7--- +++8+++ ---9--- +++10+++                  
                  142-        CELAS3  283     101     283     284     284     101     284     285             
                  143-        CELAS3  285     101     285     286     286     101     286     287             
                  144-        CELAS3  287     101     287     288     288     101     288     289             
                  145-        CELAS3  289     101     289     290     290     101     290     291             
                  146-        CELAS3  291     101     291     292     292     101     292     293             
                  147-        CELAS3  293     101     293     294     294     101     294     295             
                  148-        CELAS3  295     101     295     296     296     101     296     297             
                  149-        CELAS3  297     101     297     298     298     101     298     299             
                  150-        CELAS3  299     101     299     300     300     101     300     301             
                  151-        CELAS3  301     101     301     302     302     101     302     303             
                  152-        CELAS3  303     101     303     304     304     101     304     305             
                  153-        CELAS3  305     101     305     306     306     101     306     307             
                  154-        CELAS3  307     101     307     308     308     101     308     309             
                  155-        CELAS3  309     101     309     310     310     101     310     311             
                  156-        CELAS3  311     101     311     312     312     101     312     313             
                  157-        CELAS3  313     101     313     314     314     101     314     315             
                  158-        CELAS3  315     101     315     316     316     101     316     317             
                  159-        CELAS3  317     101     317     318     318     101     318     319             
                  160-        CELAS3  319     101     319     320     320     101     320     321             
                  161-        CELAS3  321     101     321     322     322     101     322     323             
                  162-        CELAS3  323     101     323     324     324     101     324     325             
                  163-        CELAS3  325     101     325     326     326     101     326     327             
                  164-        CELAS3  327     101     327     328     328     101     328     329             
                  165-        CELAS3  329     101     329     330     330     101     330     331             
                  166-        CELAS3  331     101     331     332     332     101     332     333             
                  167-        CELAS3  333     101     333     334     334     101     334     335             
                  168-        CELAS3  335     101     335     336     336     101     336     337             
                  169-        CELAS3  337     101     337     338     338     101     338     339             
                  170-        CELAS3  339     101     339     340     340     101     340     341             
                  171-        CELAS3  341     101     341     342     342     101     342     343             
                  172-        CELAS3  343     101     343     344     344     101     344     345             
                  173-        CELAS3  345     101     345     346     346     101     346     347             
                  174-        CELAS3  347     101     347     348     348     101     348     349             
                  175-        CELAS3  349     101     349     350     350     101     350     351             
                  176-        CELAS3  351     101     351     352     352     101     352     353             
                  177-        CELAS3  353     101     353     354     354     101     354     355             
                  178-        CELAS3  355     101     355     356     356     101     356     357             
                  179-        CELAS3  357     101     357     358     358     101     358     359             
                  180-        CELAS3  359     101     359     360     360     101     360     361             
                  181-        CELAS3  361     101     361     362     362     101     362     363             
                  182-        CELAS3  363     101     363     364     364     101     364     365             
                  183-        CELAS3  365     101     365     366     366     101     366     367             
                  184-        CELAS3  367     101     367     368     368     101     368     369             
                  185-        CELAS3  369     101     369     370     370     101     370     371             
                  186-        CELAS3  371     101     371     372     372     101     372     373             
                  187-        CELAS3  373     101     373     374     374     101     374     375             
                  188-        CELAS3  375     101     375     376     376     101     376     377             
1     TRANSIENT ANALYSIS OF A 1000 CELL STRING                              /    95 SUN SOLARIS NASTRAN    / MAY 17, 95 / PAGE    10
      NASTRAN DEMONSTRATION PROBLEM NO. D09-02-1A                                                                                   

      TRAVELING WAVE PROBLEM                                                                                                        

                                                  S O R T E D   B U L K    D A T A    E C H O                                       
                     CARD                                                                                                           
                     COUNT        ---1--- +++2+++ ---3--- +++4+++ ---5--- +++6+++ ---7--- +++8+++ ---9--- +++10+++                  
                  189-        CELAS3  377     101     377     378     378     101     378     379             
                  190-        CELAS3  379     101     379     380     380     101     380     381             
                  191-        CELAS3  381     101     381     382     382     101     382     383             
                  192-        CELAS3  383     101     383     384     384     101     384     385             
                  193-        CELAS3  385     101     385     386     386     101     386     387             
                  194-        CELAS3  387     101     387     388     388     101     388     389             
                  195-        CELAS3  389     101     389     390     390     101     390     391             
                  196-        CELAS3  391     101     391     392     392     101     392     393             
                  197-        CELAS3  393     101     393     394     394     101     394     395             
                  198-        CELAS3  395     101     395     396     396     101     396     397             
                  199-        CELAS3  397     101     397     398     398     101     398     399             
                  200-        CELAS3  399     101     399     400     400     101     400     401             
                  201-        CELAS3  401     101     401     402     402     101     402     403             
                  202-        CELAS3  403     101     403     404     404     101     404     405             
                  203-        CELAS3  405     101     405     406     406     101     406     407             
                  204-        CELAS3  407     101     407     408     408     101     408     409             
                  205-        CELAS3  409     101     409     410     410     101     410     411             
                  206-        CELAS3  411     101     411     412     412     101     412     413             
                  207-        CELAS3  413     101     413     414     414     101     414     415             
                  208-        CELAS3  415     101     415     416     416     101     416     417             
                  209-        CELAS3  417     101     417     418     418     101     418     419             
                  210-        CELAS3  419     101     419     420     420     101     420     421             
                  211-        CELAS3  421     101     421     422     422     101     422     423             
                  212-        CELAS3  423     101     423     424     424     101     424     425             
                  213-        CELAS3  425     101     425     426     426     101     426     427             
                  214-        CELAS3  427     101     427     428     428     101     428     429             
                  215-        CELAS3  429     101     429     430     430     101     430     431             
                  216-        CELAS3  431     101     431     432     432     101     432     433             
                  217-        CELAS3  433     101     433     434     434     101     434     435             
                  218-        CELAS3  435     101     435     436     436     101     436     437             
                  219-        CELAS3  437     101     437     438     438     101     438     439             
                  220-        CELAS3  439     101     439     440     440     101     440     441             
                  221-        CELAS3  441     101     441     442     442     101     442     443             
                  222-        CELAS3  443     101     443     444     444     101     444     445             
                  223-        CELAS3  445     101     445     446     446     101     446     447             
                  224-        CELAS3  447     101     447     448     448     101     448     449             
                  225-        CELAS3  449     101     449     450     450     101     450     451             
                  226-        CELAS3  451     101     451     452     452     101     452     453             
                  227-        CELAS3  453     101     453     454     454     101     454     455             
                  228-        CELAS3  455     101     455     456     456     101     456     457             
                  229-        CELAS3  457     101     457     458     458     101     458     459             
                  230-        CELAS3  459     101     459     460     460     101     460     461             
                  231-        CELAS3  461     101     461     462     462     101     462     463             
                  232-        CELAS3  463     101     463     464     464     101     464     465             
                  233-        CELAS3  465     101     465     466     466     101     466     467             
                  234-        CELAS3  467     101     467     468     468     101     468     469             
                  235-        CELAS3  469     101     469     470     470     101     470     471             
1     TRANSIENT ANALYSIS OF A 1000 CELL STRING                              /    95 SUN SOLARIS NASTRAN    / MAY 17, 95 / PAGE    11
      NASTRAN DEMONSTRATION PROBLEM NO. D09-02-1A                                                                                   

      TRAVELING WAVE PROBLEM                                                                                                        

                                                  S O R T E D   B U L K    D A T A    E C H O                                       
                     CARD                                                                                                           
                     COUNT        ---1--- +++2+++ ---3--- +++4+++ ---5--- +++6+++ ---7--- +++8+++ ---9--- +++10+++                  
                  236-        CELAS3  471     101     471     472     472     101     472     473             
                  237-        CELAS3  473     101     473     474     474     101     474     475             
                  238-        CELAS3  475     101     475     476     476     101     476     477             
                  239-        CELAS3  477     101     477     478     478     101     478     479             
                  240-        CELAS3  479     101     479     480     480     101     480     481             
                  241-        CELAS3  481     101     481     482     482     101     482     483             
                  242-        CELAS3  483     101     483     484     484     101     484     485             
                  243-        CELAS3  485     101     485     486     486     101     486     487             
                  244-        CELAS3  487     101     487     488     488     101     488     489             
                  245-        CELAS3  489     101     489     490     490     101     490     491             
                  246-        CELAS3  491     101     491     492     492     101     492     493             
                  247-        CELAS3  493     101     493     494     494     101     494     495             
                  248-        CELAS3  495     101     495     496     496     101     496     497             
                  249-        CELAS3  497     101     497     498     498     101     498     499             
                  250-        CELAS3  499     101     499     500     500     101     500     501             
                  251-        CELAS3  501     101     501     502     502     101     502     503             
                  252-        CELAS3  503     101     503     504     504     101     504     505             
                  253-        CELAS3  505     101     505     506     506     101     506     507             
                  254-        CELAS3  507     101     507     508     508     101     508     509             
                  255-        CELAS3  509     101     509     510     510     101     510     511             
                  256-        CELAS3  511     101     511     512     512     101     512     513             
                  257-        CELAS3  513     101     513     514     514     101     514     515             
                  258-        CELAS3  515     101     515     516     516     101     516     517             
                  259-        CELAS3  517     101     517     518     518     101     518     519             
                  260-        CELAS3  519     101     519     520     520     101     520     521             
                  261-        CELAS3  521     101     521     522     522     101     522     523             
                  262-        CELAS3  523     101     523     524     524     101     524     525             
                  263-        CELAS3  525     101     525     526     526     101     526     527             
                  264-        CELAS3  527     101     527     528     528     101     528     529             
                  265-        CELAS3  529     101     529     530     530     101     530     531             
                  266-        CELAS3  531     101     531     532     532     101     532     533             
                  267-        CELAS3  533     101     533     534     534     101     534     535             
                  268-        CELAS3  535     101     535     536     536     101     536     537             
                  269-        CELAS3  537     101     537     538     538     101     538     539             
                  270-        CELAS3  539     101     539     540     540     101     540     541             
                  271-        CELAS3  541     101     541     542     542     101     542     543             
                  272-        CELAS3  543     101     543     544     544     101     544     545             
                  273-        CELAS3  545     101     545     546     546     101     546     547             
                  274-        CELAS3  547     101     547     548     548     101     548     549             
                  275-        CELAS3  549     101     549     550     550     101     550     551             
                  276-        CELAS3  551     101     551     552     552     101     552     553             
                  277-        CELAS3  553     101     553     554     554     101     554     555             
                  278-        CELAS3  555     101     555     556     556     101     556     557             
                  279-        CELAS3  557     101     557     558     558     101     558     559             
                  280-        CELAS3  559     101     559     560     560     101     560     561             
                  281-        CELAS3  561     101     561     562     562     101     562     563             
                  282-        CELAS3  563     101     563     564     564     101     564     565             
1     TRANSIENT ANALYSIS OF A 1000 CELL STRING                              /    95 SUN SOLARIS NASTRAN    / MAY 17, 95 / PAGE    12
      NASTRAN DEMONSTRATION PROBLEM NO. D09-02-1A                                                                                   

      TRAVELING WAVE PROBLEM                                                                                                        

                                                  S O R T E D   B U L K    D A T A    E C H O                                       
                     CARD                                                                                                           
                     COUNT        ---1--- +++2+++ ---3--- +++4+++ ---5--- +++6+++ ---7--- +++8+++ ---9--- +++10+++                  
                  283-        CELAS3  565     101     565     566     566     101     566     567             
                  284-        CELAS3  567     101     567     568     568     101     568     569             
                  285-        CELAS3  569     101     569     570     570     101     570     571             
                  286-        CELAS3  571     101     571     572     572     101     572     573             
                  287-        CELAS3  573     101     573     574     574     101     574     575             
                  288-        CELAS3  575     101     575     576     576     101     576     577             
                  289-        CELAS3  577     101     577     578     578     101     578     579             
                  290-        CELAS3  579     101     579     580     580     101     580     581             
                  291-        CELAS3  581     101     581     582     582     101     582     583             
                  292-        CELAS3  583     101     583     584     584     101     584     585             
                  293-        CELAS3  585     101     585     586     586     101     586     587             
                  294-        CELAS3  587     101     587     588     588     101     588     589             
                  295-        CELAS3  589     101     589     590     590     101     590     591             
                  296-        CELAS3  591     101     591     592     592     101     592     593             
                  297-        CELAS3  593     101     593     594     594     101     594     595             
                  298-        CELAS3  595     101     595     596     596     101     596     597             
                  299-        CELAS3  597     101     597     598     598     101     598     599             
                  300-        CELAS3  599     101     599     600     600     101     600     601             
                  301-        CELAS3  601     101     601     602     602     101     602     603             
                  302-        CELAS3  603     101     603     604     604     101     604     605             
                  303-        CELAS3  605     101     605     606     606     101     606     607             
                  304-        CELAS3  607     101     607     608     608     101     608     609             
                  305-        CELAS3  609     101     609     610     610     101     610     611             
                  306-        CELAS3  611     101     611     612     612     101     612     613             
                  307-        CELAS3  613     101     613     614     614     101     614     615             
                  308-        CELAS3  615     101     615     616     616     101     616     617             
                  309-        CELAS3  617     101     617     618     618     101     618     619             
                  310-        CELAS3  619     101     619     620     620     101     620     621             
                  311-        CELAS3  621     101     621     622     622     101     622     623             
                  312-        CELAS3  623     101     623     624     624     101     624     625             
                  313-        CELAS3  625     101     625     626     626     101     626     627             
                  314-        CELAS3  627     101     627     628     628     101     628     629             
                  315-        CELAS3  629     101     629     630     630     101     630     631             
                  316-        CELAS3  631     101     631     632     632     101     632     633             
                  317-        CELAS3  633     101     633     634     634     101     634     635             
                  318-        CELAS3  635     101     635     636     636     101     636     637             
                  319-        CELAS3  637     101     637     638     638     101     638     639             
                  320-        CELAS3  639     101     639     640     640     101     640     641             
                  321-        CELAS3  641     101     641     642     642     101     642     643             
                  322-        CELAS3  643     101     643     644     644     101     644     645             
                  323-        CELAS3  645     101     645     646     646     101     646     647             
                  324-        CELAS3  647     101     647     648     648     101     648     649             
                  325-        CELAS3  649     101     649     650     650     101     650     651             
                  326-        CELAS3  651     101     651     652     652     101     652     653             
                  327-        CELAS3  653     101     653     654     654     101     654     655             
                  328-        CELAS3  655     101     655     656     656     101     656     657             
                  329-        CELAS3  657     101     657     658     658     101     658     659             
1     TRANSIENT ANALYSIS OF A 1000 CELL STRING                              /    95 SUN SOLARIS NASTRAN    / MAY 17, 95 / PAGE    13
      NASTRAN DEMONSTRATION PROBLEM NO. D09-02-1A                                                                                   

      TRAVELING WAVE PROBLEM                                                                                                        

                                                  S O R T E D   B U L K    D A T A    E C H O                                       
                     CARD                                                                                                           
                     COUNT        ---1--- +++2+++ ---3--- +++4+++ ---5--- +++6+++ ---7--- +++8+++ ---9--- +++10+++                  
                  330-        CELAS3  659     101     659     660     660     101     660     661             
                  331-        CELAS3  661     101     661     662     662     101     662     663             
                  332-        CELAS3  663     101     663     664     664     101     664     665             
                  333-        CELAS3  665     101     665     666     666     101     666     667             
                  334-        CELAS3  667     101     667     668     668     101     668     669             
                  335-        CELAS3  669     101     669     670     670     101     670     671             
                  336-        CELAS3  671     101     671     672     672     101     672     673             
                  337-        CELAS3  673     101     673     674     674     101     674     675             
                  338-        CELAS3  675     101     675     676     676     101     676     677             
                  339-        CELAS3  677     101     677     678     678     101     678     679             
                  340-        CELAS3  679     101     679     680     680     101     680     681             
                  341-        CELAS3  681     101     681     682     682     101     682     683             
                  342-        CELAS3  683     101     683     684     684     101     684     685             
                  343-        CELAS3  685     101     685     686     686     101     686     687             
                  344-        CELAS3  687     101     687     688     688     101     688     689             
                  345-        CELAS3  689     101     689     690     690     101     690     691             
                  346-        CELAS3  691     101     691     692     692     101     692     693             
                  347-        CELAS3  693     101     693     694     694     101     694     695             
                  348-        CELAS3  695     101     695     696     696     101     696     697             
                  349-        CELAS3  697     101     697     698     698     101     698     699             
                  350-        CELAS3  699     101     699     700     700     101     700     701             
                  351-        CELAS3  701     101     701     702     702     101     702     703             
                  352-        CELAS3  703     101     703     704     704     101     704     705             
                  353-        CELAS3  705     101     705     706     706     101     706     707             
                  354-        CELAS3  707     101     707     708     708     101     708     709             
                  355-        CELAS3  709     101     709     710     710     101     710     711             
                  356-        CELAS3  711     101     711     712     712     101     712     713             
                  357-        CELAS3  713     101     713     714     714     101     714     715             
                  358-        CELAS3  715     101     715     716     716     101     716     717             
                  359-        CELAS3  717     101     717     718     718     101     718     719             
                  360-        CELAS3  719     101     719     720     720     101     720     721             
                  361-        CELAS3  721     101     721     722     722     101     722     723             
                  362-        CELAS3  723     101     723     724     724     101     724     725             
                  363-        CELAS3  725     101     725     726     726     101     726     727             
                  364-        CELAS3  727     101     727     728     728     101     728     729             
                  365-        CELAS3  729     101     729     730     730     101     730     731             
                  366-        CELAS3  731     101     731     732     732     101     732     733             
                  367-        CELAS3  733     101     733     734     734     101     734     735             
                  368-        CELAS3  735     101     735     736     736     101     736     737             
                  369-        CELAS3  737     101     737     738     738     101     738     739             
                  370-        CELAS3  739     101     739     740     740     101     740     741             
                  371-        CELAS3  741     101     741     742     742     101     742     743             
                  372-        CELAS3  743     101     743     744     744     101     744     745             
                  373-        CELAS3  745     101     745     746     746     101     746     747             
                  374-        CELAS3  747     101     747     748     748     101     748     749             
                  375-        CELAS3  749     101     749     750     750     101     750     751             
                  376-        CELAS3  751     101     751     752     752     101     752     753             
1     TRANSIENT ANALYSIS OF A 1000 CELL STRING                              /    95 SUN SOLARIS NASTRAN    / MAY 17, 95 / PAGE    14
      NASTRAN DEMONSTRATION PROBLEM NO. D09-02-1A                                                                                   

      TRAVELING WAVE PROBLEM                                                                                                        

                                                  S O R T E D   B U L K    D A T A    E C H O                                       
                     CARD                                                                                                           
                     COUNT        ---1--- +++2+++ ---3--- +++4+++ ---5--- +++6+++ ---7--- +++8+++ ---9--- +++10+++                  
                  377-        CELAS3  753     101     753     754     754     101     754     755             
                  378-        CELAS3  755     101     755     756     756     101     756     757             
                  379-        CELAS3  757     101     757     758     758     101     758     759             
                  380-        CELAS3  759     101     759     760     760     101     760     761             
                  381-        CELAS3  761     101     761     762     762     101     762     763             
                  382-        CELAS3  763     101     763     764     764     101     764     765             
                  383-        CELAS3  765     101     765     766     766     101     766     767             
                  384-        CELAS3  767     101     767     768     768     101     768     769             
                  385-        CELAS3  769     101     769     770     770     101     770     771             
                  386-        CELAS3  771     101     771     772     772     101     772     773             
                  387-        CELAS3  773     101     773     774     774     101     774     775             
                  388-        CELAS3  775     101     775     776     776     101     776     777             
                  389-        CELAS3  777     101     777     778     778     101     778     779             
                  390-        CELAS3  779     101     779     780     780     101     780     781             
                  391-        CELAS3  781     101     781     782     782     101     782     783             
                  392-        CELAS3  783     101     783     784     784     101     784     785             
                  393-        CELAS3  785     101     785     786     786     101     786     787             
                  394-        CELAS3  787     101     787     788     788     101     788     789             
                  395-        CELAS3  789     101     789     790     790     101     790     791             
                  396-        CELAS3  791     101     791     792     792     101     792     793             
                  397-        CELAS3  793     101     793     794     794     101     794     795             
                  398-        CELAS3  795     101     795     796     796     101     796     797             
                  399-        CELAS3  797     101     797     798     798     101     798     799             
                  400-        CELAS3  799     101     799     800     800     101     800     801             
                  401-        CELAS3  801     101     801     802     802     101     802     803             
                  402-        CELAS3  803     101     803     804     804     101     804     805             
                  403-        CELAS3  805     101     805     806     806     101     806     807             
                  404-        CELAS3  807     101     807     808     808     101     808     809             
                  405-        CELAS3  809     101     809     810     810     101     810     811             
                  406-        CELAS3  811     101     811     812     812     101     812     813             
                  407-        CELAS3  813     101     813     814     814     101     814     815             
                  408-        CELAS3  815     101     815     816     816     101     816     817             
                  409-        CELAS3  817     101     817     818     818     101     818     819             
                  410-        CELAS3  819     101     819     820     820     101     820     821             
                  411-        CELAS3  821     101     821     822     822     101     822     823             
                  412-        CELAS3  823     101     823     824     824     101     824     825             
                  413-        CELAS3  825     101     825     826     826     101     826     827             
                  414-        CELAS3  827     101     827     828     828     101     828     829             
                  415-        CELAS3  829     101     829     830     830     101     830     831             
                  416-        CELAS3  831     101     831     832     832     101     832     833             
                  417-        CELAS3  833     101     833     834     834     101     834     835             
                  418-        CELAS3  835     101     835     836     836     101     836     837             
                  419-        CELAS3  837     101     837     838     838     101     838     839             
                  420-        CELAS3  839     101     839     840     840     101     840     841             
                  421-        CELAS3  841     101     841     842     842     101     842     843             
                  422-        CELAS3  843     101     843     844     844     101     844     845             
                  423-        CELAS3  845     101     845     846     846     101     846     847             
1     TRANSIENT ANALYSIS OF A 1000 CELL STRING                              /    95 SUN SOLARIS NASTRAN    / MAY 17, 95 / PAGE    15
      NASTRAN DEMONSTRATION PROBLEM NO. D09-02-1A                                                                                   

      TRAVELING WAVE PROBLEM                                                                                                        

                                                  S O R T E D   B U L K    D A T A    E C H O                                       
                     CARD                                                                                                           
                     COUNT        ---1--- +++2+++ ---3--- +++4+++ ---5--- +++6+++ ---7--- +++8+++ ---9--- +++10+++                  
                  424-        CELAS3  847     101     847     848     848     101     848     849             
                  425-        CELAS3  849     101     849     850     850     101     850     851             
                  426-        CELAS3  851     101     851     852     852     101     852     853             
                  427-        CELAS3  853     101     853     854     854     101     854     855             
                  428-        CELAS3  855     101     855     856     856     101     856     857             
                  429-        CELAS3  857     101     857     858     858     101     858     859             
                  430-        CELAS3  859     101     859     860     860     101     860     861             
                  431-        CELAS3  861     101     861     862     862     101     862     863             
                  432-        CELAS3  863     101     863     864     864     101     864     865             
                  433-        CELAS3  865     101     865     866     866     101     866     867             
                  434-        CELAS3  867     101     867     868     868     101     868     869             
                  435-        CELAS3  869     101     869     870     870     101     870     871             
                  436-        CELAS3  871     101     871     872     872     101     872     873             
                  437-        CELAS3  873     101     873     874     874     101     874     875             
                  438-        CELAS3  875     101     875     876     876     101     876     877             
                  439-        CELAS3  877     101     877     878     878     101     878     879             
                  440-        CELAS3  879     101     879     880     880     101     880     881             
                  441-        CELAS3  881     101     881     882     882     101     882     883             
                  442-        CELAS3  883     101     883     884     884     101     884     885             
                  443-        CELAS3  885     101     885     886     886     101     886     887             
                  444-        CELAS3  887     101     887     888     888     101     888     889             
                  445-        CELAS3  889     101     889     890     890     101     890     891             
                  446-        CELAS3  891     101     891     892     892     101     892     893             
                  447-        CELAS3  893     101     893     894     894     101     894     895             
                  448-        CELAS3  895     101     895     896     896     101     896     897             
                  449-        CELAS3  897     101     897     898     898     101     898     899             
                  450-        CELAS3  899     101     899     900     900     101     900     901             
                  451-        CELAS3  901     101     901     902     902     101     902     903             
                  452-        CELAS3  903     101     903     904     904     101     904     905             
                  453-        CELAS3  905     101     905     906     906     101     906     907             
                  454-        CELAS3  907     101     907     908     908     101     908     909             
                  455-        CELAS3  909     101     909     910     910     101     910     911             
                  456-        CELAS3  911     101     911     912     912     101     912     913             
                  457-        CELAS3  913     101     913     914     914     101     914     915             
                  458-        CELAS3  915     101     915     916     916     101     916     917             
                  459-        CELAS3  917     101     917     918     918     101     918     919             
                  460-        CELAS3  919     101     919     920     920     101     920     921             
                  461-        CELAS3  921     101     921     922     922     101     922     923             
                  462-        CELAS3  923     101     923     924     924     101     924     925             
                  463-        CELAS3  925     101     925     926     926     101     926     927             
                  464-        CELAS3  927     101     927     928     928     101     928     929             
                  465-        CELAS3  929     101     929     930     930     101     930     931             
                  466-        CELAS3  931     101     931     932     932     101     932     933             
                  467-        CELAS3  933     101     933     934     934     101     934     935             
                  468-        CELAS3  935     101     935     936     936     101     936     937             
                  469-        CELAS3  937     101     937     938     938     101     938     939             
                  470-        CELAS3  939     101     939     940     940     101     940     941             
1     TRANSIENT ANALYSIS OF A 1000 CELL STRING                              /    95 SUN SOLARIS NASTRAN    / MAY 17, 95 / PAGE    16
      NASTRAN DEMONSTRATION PROBLEM NO. D09-02-1A                                                                                   

      TRAVELING WAVE PROBLEM                                                                                                        

                                                  S O R T E D   B U L K    D A T A    E C H O                                       
                     CARD                                                                                                           
                     COUNT        ---1--- +++2+++ ---3--- +++4+++ ---5--- +++6+++ ---7--- +++8+++ ---9--- +++10+++                  
                  471-        CELAS3  941     101     941     942     942     101     942     943             
                  472-        CELAS3  943     101     943     944     944     101     944     945             
                  473-        CELAS3  945     101     945     946     946     101     946     947             
                  474-        CELAS3  947     101     947     948     948     101     948     949             
                  475-        CELAS3  949     101     949     950     950     101     950     951             
                  476-        CELAS3  951     101     951     952     952     101     952     953             
                  477-        CELAS3  953     101     953     954     954     101     954     955             
                  478-        CELAS3  955     101     955     956     956     101     956     957             
                  479-        CELAS3  957     101     957     958     958     101     958     959             
                  480-        CELAS3  959     101     959     960     960     101     960     961             
                  481-        CELAS3  961     101     961     962     962     101     962     963             
                  482-        CELAS3  963     101     963     964     964     101     964     965             
                  483-        CELAS3  965     101     965     966     966     101     966     967             
                  484-        CELAS3  967     101     967     968     968     101     968     969             
                  485-        CELAS3  969     101     969     970     970     101     970     971             
                  486-        CELAS3  971     101     971     972     972     101     972     973             
                  487-        CELAS3  973     101     973     974     974     101     974     975             
                  488-        CELAS3  975     101     975     976     976     101     976     977             
                  489-        CELAS3  977     101     977     978     978     101     978     979             
                  490-        CELAS3  979     101     979     980     980     101     980     981             
                  491-        CELAS3  981     101     981     982     982     101     982     983             
                  492-        CELAS3  983     101     983     984     984     101     984     985             
                  493-        CELAS3  985     101     985     986     986     101     986     987             
                  494-        CELAS3  987     101     987     988     988     101     988     989             
                  495-        CELAS3  989     101     989     990     990     101     990     991             
                  496-        CELAS3  991     101     991     992     992     101     992     993             
                  497-        CELAS3  993     101     993     994     994     101     994     995             
                  498-        CELAS3  995     101     995     996     996     101     996     997             
                  499-        CELAS3  997     101     997     998     998     101     998     999             
                  500-        CELAS3  999     101     999     1000    1000    101     1000    0               
                  501-        CMASS3  40002   301     2       0                                               
                  502-        CMASS3  40003   301     3       0       40004   301     4       0               
                  503-        CMASS3  40005   301     5       0       40006   301     6       0               
                  504-        CMASS3  40007   301     7       0       40008   301     8       0               
                  505-        CMASS3  40009   301     9       0       40010   301     10      0               
                  506-        CMASS3  40011   301     11      0       40012   301     12      0               
                  507-        CMASS3  40013   301     13      0       40014   301     14      0               
                  508-        CMASS3  40015   301     15      0       40016   301     16      0               
                  509-        CMASS3  40017   301     17      0       40018   301     18      0               
                  510-        CMASS3  40019   301     19      0       40020   301     20      0               
                  511-        CMASS3  40021   301     21      0       40022   301     22      0               
                  512-        CMASS3  40023   301     23      0       40024   301     24      0               
                  513-        CMASS3  40025   301     25      0       40026   301     26      0               
                  514-        CMASS3  40027   301     27      0       40028   301     28      0               
                  515-        CMASS3  40029   301     29      0       40030   301     30      0               
                  516-        CMASS3  40031   301     31      0       40032   301     32      0               
                  517-        CMASS3  40033   301     33      0       40034   301     34      0               
1     TRANSIENT ANALYSIS OF A 1000 CELL STRING                              /    95 SUN SOLARIS NASTRAN    / MAY 17, 95 / PAGE    17
      NASTRAN DEMONSTRATION PROBLEM NO. D09-02-1A                                                                                   

      TRAVELING WAVE PROBLEM                                                                                                        

                                                  S O R T E D   B U L K    D A T A    E C H O                                       
                     CARD                                                                                                           
                     COUNT        ---1--- +++2+++ ---3--- +++4+++ ---5--- +++6+++ ---7--- +++8+++ ---9--- +++10+++                  
                  518-        CMASS3  40035   301     35      0       40036   301     36      0               
                  519-        CMASS3  40037   301     37      0       40038   301     38      0               
                  520-        CMASS3  40039   301     39      0       40040   301     40      0               
                  521-        CMASS3  40041   301     41      0       40042   301     42      0               
                  522-        CMASS3  40043   301     43      0       40044   301     44      0               
                  523-        CMASS3  40045   301     45      0       40046   301     46      0               
                  524-        CMASS3  40047   301     47      0       40048   301     48      0               
                  525-        CMASS3  40049   301     49      0       40050   301     50      0               
                  526-        CMASS3  40051   301     51      0       40052   301     52      0               
                  527-        CMASS3  40053   301     53      0       40054   301     54      0               
                  528-        CMASS3  40055   301     55      0       40056   301     56      0               
                  529-        CMASS3  40057   301     57      0       40058   301     58      0               
                  530-        CMASS3  40059   301     59      0       40060   301     60      0               
                  531-        CMASS3  40061   301     61      0       40062   301     62      0               
                  532-        CMASS3  40063   301     63      0       40064   301     64      0               
                  533-        CMASS3  40065   301     65      0       40066   301     66      0               
                  534-        CMASS3  40067   301     67      0       40068   301     68      0               
                  535-        CMASS3  40069   301     69      0       40070   301     70      0               
                  536-        CMASS3  40071   301     71      0       40072   301     72      0               
                  537-        CMASS3  40073   301     73      0       40074   301     74      0               
                  538-        CMASS3  40075   301     75      0       40076   301     76      0               
                  539-        CMASS3  40077   301     77      0       40078   301     78      0               
                  540-        CMASS3  40079   301     79      0       40080   301     80      0               
                  541-        CMASS3  40081   301     81      0       40082   301     82      0               
                  542-        CMASS3  40083   301     83      0       40084   301     84      0               
                  543-        CMASS3  40085   301     85      0       40086   301     86      0               
                  544-        CMASS3  40087   301     87      0       40088   301     88      0               
                  545-        CMASS3  40089   301     89      0       40090   301     90      0               
                  546-        CMASS3  40091   301     91      0       40092   301     92      0               
                  547-        CMASS3  40093   301     93      0       40094   301     94      0               
                  548-        CMASS3  40095   301     95      0       40096   301     96      0               
                  549-        CMASS3  40097   301     97      0       40098   301     98      0               
                  550-        CMASS3  40099   301     99      0       40100   301     100     0               
                  551-        CMASS3  40101   301     101     0       40102   301     102     0               
                  552-        CMASS3  40103   301     103     0       40104   301     104     0               
                  553-        CMASS3  40105   301     105     0       40106   301     106     0               
                  554-        CMASS3  40107   301     107     0       40108   301     108     0               
                  555-        CMASS3  40109   301     109     0       40110   301     110     0               
                  556-        CMASS3  40111   301     111     0       40112   301     112     0               
                  557-        CMASS3  40113   301     113     0       40114   301     114     0               
                  558-        CMASS3  40115   301     115     0       40116   301     116     0               
                  559-        CMASS3  40117   301     117     0       40118   301     118     0               
                  560-        CMASS3  40119   301     119     0       40120   301     120     0               
                  561-        CMASS3  40121   301     121     0       40122   301     122     0               
                  562-        CMASS3  40123   301     123     0       40124   301     124     0               
                  563-        CMASS3  40125   301     125     0       40126   301     126     0               
                  564-        CMASS3  40127   301     127     0       40128   301     128     0               
1     TRANSIENT ANALYSIS OF A 1000 CELL STRING                              /    95 SUN SOLARIS NASTRAN    / MAY 17, 95 / PAGE    18
      NASTRAN DEMONSTRATION PROBLEM NO. D09-02-1A                                                                                   

      TRAVELING WAVE PROBLEM                                                                                                        

                                                  S O R T E D   B U L K    D A T A    E C H O                                       
[...]
   1.450000E-02     S      0.0                                                                                                      
   1.500000E-02     S      0.0                                                                                                      
   1.550000E-02     S      0.0                                                                                                      
   1.600000E-02     S      0.0                                                                                                      
   1.650000E-02     S      0.0                                                                                                      
   1.700000E-02     S      0.0                                                                                                      
   1.750000E-02     S      0.0                                                                                                      
   1.800000E-02     S      0.0                                                                                                      
   1.850000E-02     S      0.0                                                                                                      
   1.900000E-02     S      0.0                                                                                                      
   1.949999E-02     S      0.0                                                                                                      
   1.999999E-02     S      0.0                                                                                                      
   2.049999E-02     S      0.0                                                                                                      
   2.099999E-02     S      0.0                                                                                                      
   2.149999E-02     S      0.0                                                                                                      
   2.199999E-02     S      0.0                                                                                                      
   2.249999E-02     S      0.0                                                                                                      
   2.299999E-02     S      0.0                                                                                                      
1     TRANSIENT ANALYSIS OF A 1000 CELL STRING                              /    95 SUN SOLARIS NASTRAN    / MAY 17, 95 / PAGE   104
      NASTRAN DEMONSTRATION PROBLEM NO. D09-02-1A                                                                                   
0     TRAVELING WAVE PROBLEM                                                                                                        
      POINT-ID =     100
                                                V E L O C I T Y    V E C T O R
 
       TIME       TYPE          T1             T2             T3             R1             R2             R3
   2.349999E-02     S      0.0                                                                                                      
   2.399999E-02     S      1.286378E-38                                                                                             
   2.449999E-02     S      5.984403E-38                                                                                             
   2.499999E-02     S      2.730881E-37                                                                                             
1     TRANSIENT ANALYSIS OF A 1000 CELL STRING                              /    95 SUN SOLARIS NASTRAN    / MAY 17, 95 / PAGE   105
      NASTRAN DEMONSTRATION PROBLEM NO. D09-02-1A                                                                                   
0     TRAVELING WAVE PROBLEM                                                                                                        
      POINT-ID =     200
                                                V E L O C I T Y    V E C T O R
 
       TIME       TYPE          T1             T2             T3             R1             R2             R3
   0.0              S      0.0                                                                                                      
   5.000000E-04     S      0.0                                                                                                      
   1.000000E-03     S      0.0                                                                                                      
   1.500000E-03     S      0.0                                                                                                      
   2.000000E-03     S      0.0                                                                                                      
   2.500000E-03     S      0.0                                                                                                      
   3.000000E-03     S      0.0                                                                                                      
   3.500000E-03     S      0.0                                                                                                      
   4.000000E-03     S      0.0                                                                                                      
   4.500000E-03     S      0.0                                                                                                      
   5.000000E-03     S      0.0                                                                                                      
   5.500000E-03     S      0.0                                                                                                      
   6.000001E-03     S      0.0                                                                                                      
   6.500001E-03     S      0.0                                                                                                      
   7.000001E-03     S      0.0                                                                                                      
   7.500001E-03     S      0.0                                                                                                      
   8.000000E-03     S      0.0                                                                                                      
   8.500000E-03     S      0.0                                                                                                      
   9.000001E-03     S      0.0                                                                                                      
   9.500001E-03     S      0.0                                                                                                      
   1.000000E-02     S      0.0                                                                                                      
   1.050000E-02     S      0.0                                                                                                      
   1.100000E-02     S      0.0                                                                                                      
   1.150000E-02     S      0.0                                                                                                      
   1.200000E-02     S      0.0                                                                                                      
   1.250000E-02     S      0.0                                                                                                      
   1.300000E-02     S      0.0                                                                                                      
   1.350000E-02     S      0.0                                                                                                      
   1.400000E-02     S      0.0                                                                                                      
   1.450000E-02     S      0.0                                                                                                      
   1.500000E-02     S      0.0                                                                                                      
   1.550000E-02     S      0.0                                                                                                      
   1.600000E-02     S      0.0                                                                                                      
   1.650000E-02     S      0.0                                                                                                      
   1.700000E-02     S      0.0                                                                                                      
   1.750000E-02     S      0.0                                                                                                      
   1.800000E-02     S      0.0                                                                                                      
   1.850000E-02     S      0.0                                                                                                      
   1.900000E-02     S      0.0                                                                                                      
   1.949999E-02     S      0.0                                                                                                      
   1.999999E-02     S      0.0                                                                                                      
   2.049999E-02     S      0.0                                                                                                      
   2.099999E-02     S      0.0                                                                                                      
   2.149999E-02     S      0.0                                                                                                      
   2.199999E-02     S      0.0                                                                                                      
   2.249999E-02     S      0.0                                                                                                      
   2.299999E-02     S      0.0                                                                                                      
1     TRANSIENT ANALYSIS OF A 1000 CELL STRING                              /    95 SUN SOLARIS NASTRAN    / MAY 17, 95 / PAGE   106
      NASTRAN DEMONSTRATION PROBLEM NO. D09-02-1A                                                                                   
0     TRAVELING WAVE PROBLEM                                                                                                        
      POINT-ID =     200
                                                V E L O C I T Y    V E C T O R
 
       TIME       TYPE          T1             T2             T3             R1             R2             R3
   2.349999E-02     S      0.0                                                                                                      
   2.399999E-02     S      0.0                                                                                                      
   2.449999E-02     S      0.0                                                                                                      
   2.499999E-02     S      0.0                                                                                                      
1     TRANSIENT ANALYSIS OF A 1000 CELL STRING                              /    95 SUN SOLARIS NASTRAN    / MAY 17, 95 / PAGE   107
      NASTRAN DEMONSTRATION PROBLEM NO. D09-02-1A                                                                                   
0     TRAVELING WAVE PROBLEM                                                                                                        
      POINT-ID =     500
                                                V E L O C I T Y    V E C T O R
 
       TIME       TYPE          T1             T2             T3             R1             R2             R3
   0.0              S      0.0                                                                                                      
   5.000000E-04     S      0.0                                                                                                      
   1.000000E-03     S      0.0                                                                                                      
   1.500000E-03     S      0.0                                                                                                      
   2.000000E-03     S      0.0                                                                                                      
   2.500000E-03     S      0.0                                                                                                      
   3.000000E-03     S      0.0                                                                                                      
   3.500000E-03     S      0.0                                                                                                      
   4.000000E-03     S      0.0                                                                                                      
   4.500000E-03     S      0.0                                                                                                      
   5.000000E-03     S      0.0                                                                                                      
   5.500000E-03     S      0.0                                                                                                      
   6.000001E-03     S      0.0                                                                                                      
   6.500001E-03     S      0.0                                                                                                      
   7.000001E-03     S      0.0                                                                                                      
   7.500001E-03     S      0.0                                                                                                      
   8.000000E-03     S      0.0                                                                                                      
   8.500000E-03     S      0.0                                                                                                      
   9.000001E-03     S      0.0                                                                                                      
   9.500001E-03     S      0.0                                                                                                      
   1.000000E-02     S      0.0                                                                                                      
   1.050000E-02     S      0.0                                                                                                      
   1.100000E-02     S      0.0                                                                                                      
   1.150000E-02     S      0.0                                                                                                      
   1.200000E-02     S      0.0                                                                                                      
   1.250000E-02     S      0.0                                                                                                      
   1.300000E-02     S      0.0                                                                                                      
   1.350000E-02     S      0.0                                                                                                      
   1.400000E-02     S      0.0                                                                                                      
   1.450000E-02     S      0.0                                                                                                      
   1.500000E-02     S      0.0                                                                                                      
   1.550000E-02     S      0.0                                                                                                      
   1.600000E-02     S      0.0                                                                                                      
   1.650000E-02     S      0.0                                                                                                      
   1.700000E-02     S      0.0                                                                                                      
   1.750000E-02     S      0.0                                                                                                      
   1.800000E-02     S      0.0                                                                                                      
   1.850000E-02     S      0.0                                                                                                      
   1.900000E-02     S      0.0                                                                                                      
   1.949999E-02     S      0.0                                                                                                      
   1.999999E-02     S      0.0                                                                                                      
   2.049999E-02     S      0.0                                                                                                      
   2.099999E-02     S      0.0                                                                                                      
   2.149999E-02     S      0.0                                                                                                      
   2.199999E-02     S      0.0                                                                                                      
   2.249999E-02     S      0.0                                                                                                      
   2.299999E-02     S      0.0                                                                                                      
1     TRANSIENT ANALYSIS OF A 1000 CELL STRING                              /    95 SUN SOLARIS NASTRAN    / MAY 17, 95 / PAGE   108
      NASTRAN DEMONSTRATION PROBLEM NO. D09-02-1A                                                                                   
0     TRAVELING WAVE PROBLEM                                                                                                        
      POINT-ID =     500
                                                V E L O C I T Y    V E C T O R
 
       TIME       TYPE          T1             T2             T3             R1             R2             R3
   2.349999E-02     S      0.0                                                                                                      
   2.399999E-02     S      0.0                                                                                                      
   2.449999E-02     S      0.0                                                                                                      
   2.499999E-02     S      0.0                                                                                                      




                                        * * * END OF JOB * * *
1
 JOB TITLE =  TRANSIENT ANALYSIS OF A 1000 CELL STRING                           
 DATE:  5/17/95
 END TIME: 16: 6:53
 TOTAL WALL CLOCK TIME      3 SEC.
 
