     NASTRAN FILES = OPTP                                                            






                                  ****
                                *      *
                               *        *
                               *  N A S T R A N
                               *        *
                                *      *
                                  ****


                             SUN COMPUTER SYSTEMS    
                                SOLARIS VERSION

                          SYSTEM RELEASE -  1995 ED.

                                DISTRIBUTED BY

         COMPUTER SOFTWARE MANAGEMENT AND INFORMATION CENTER (COSMIC)
                 UNIVERSITY OF GEORGIA, ATHENS, GEORGIA 30602
                 PHONE: (706)542-3265      FAX: (706)542-4807
1                                                                           /    95 SUN SOLARIS NASTRAN    / MAY 17, 95 / PAGE     2
                                                                                                                                    
0                                                                                                                                   
                                                                                                         
                                                                                                         
                         INSTALLATION CENTER USER INFORMATION GIVEN IN THIS SECTION                      
                                                                                                         
                                     *********************************************                       
                                     *                                           *                       
                                     *  PLEASE READ THE COMMENT IN DEMO PROBLEM  *                       
                                     *  D01002A ABOUT SYSTEM TIMING CONSTANTS    *                       
                                     *                                           *                       
                                     *********************************************                       
                                                                                                         
                         ===X=    TOP OF PAGE REQUEST IF 'X' IS REPLACED BY '='                          
                                                                                                         
1                                                                           /    95 SUN SOLARIS NASTRAN    / MAY 17, 95 / PAGE     3
                                                                                                                                    
0                                                                                                                                   
0*** USER INFORMATION MESSAGE 225, GINO TIME CONSTANTS ARE BEING COMPUTED
     (SEE NASINFO FILE FOR ELIMINATION OF THESE COMPUTATIONS)
1                                                                           /    95 SUN SOLARIS NASTRAN    / MAY 17, 95 / PAGE     4
                                                                                                                                    
0        N A S T R A N    E X E C U T I V E    C O N T R O L    D E C K    E C H O                                                  
0                                                                                                                                   
                                                                                                                                    
                                                                                                                                    
     ID    D11011B,RESTART                                                           
     $ INSERT THE RESTART DICTIONARY HERE                                            
0*** $   ... READFILE FROM-  RSCARDS                                                 
     RESTART  D11011A ,NASTRAN , 5/17/95,   58417,                                   
              1,   XVPS    ,   FLAGS = 0,   REEL =  1,   FILE =      6               
              2,   REENTER AT DMAP SEQUENCE NUMBER     6                             
              3,   GPL     ,   FLAGS = 0,   REEL =  1,   FILE =      7               
              4,   EQEXIN  ,   FLAGS = 0,   REEL =  1,   FILE =      8               
              5,   GPDT    ,   FLAGS = 0,   REEL =  1,   FILE =      9               
              6,   BGPDT   ,   FLAGS = 0,   REEL =  1,   FILE =     10               
              7,   SIL     ,   FLAGS = 0,   REEL =  1,   FILE =     11               
              8,   XVPS    ,   FLAGS = 0,   REEL =  1,   FILE =     12               
              9,   CSTM    ,   FLAGS = 0,   REEL =  0,   FILE =      0               
             10,   REENTER AT DMAP SEQUENCE NUMBER     7                             
             11,   XVPS    ,   FLAGS = 0,   REEL =  1,   FILE =     13               
             12,   MPTA    ,   FLAGS = 0,   REEL =  0,   FILE =      0               
             13,   REENTER AT DMAP SEQUENCE NUMBER     8                             
             14,   MPT     ,   FLAGS = 0,   REEL =  1,   FILE =     14               
             15,   XVPS    ,   FLAGS = 0,   REEL =  1,   FILE =     15               
             16,   REENTER AT DMAP SEQUENCE NUMBER     9                             
             17,   BGPDP   ,   FLAGS = 0,   REEL =  1,   FILE =     16               
             18,   SIP     ,   FLAGS = 0,   REEL =  1,   FILE =     17               
             19,   XVPS    ,   FLAGS = 0,   REEL =  1,   FILE =     18               
             20,   REENTER AT DMAP SEQUENCE NUMBER    10                             
             21,   ECT     ,   FLAGS = 0,   REEL =  1,   FILE =     19               
             22,   XVPS    ,   FLAGS = 0,   REEL =  1,   FILE =     20               
             23,   REENTER AT DMAP SEQUENCE NUMBER    12                             
             24,   XVPS    ,   FLAGS = 0,   REEL =  1,   FILE =     21               
             25,   PLTSETX ,   FLAGS = 0,   REEL =  0,   FILE =      0               
             26,   PLTPAR  ,   FLAGS = 0,   REEL =  0,   FILE =      0               
             27,   GPSETS  ,   FLAGS = 0,   REEL =  0,   FILE =      0               
             28,   ELSETS  ,   FLAGS = 0,   REEL =  0,   FILE =      0               
             29,   REENTER AT DMAP SEQUENCE NUMBER    22                             
             30,   XVPS    ,   FLAGS = 0,   REEL =  1,   FILE =     22               
             31,   GPTT    ,   FLAGS = 0,   REEL =  0,   FILE =      0               
             32,   REENTER AT DMAP SEQUENCE NUMBER    23                             
             33,   EST     ,   FLAGS = 0,   REEL =  1,   FILE =     23               
             34,   GEI     ,   FLAGS = 0,   REEL =  1,   FILE =     24               
             35,   GPECT   ,   FLAGS = 0,   REEL =  1,   FILE =     25               
             36,   XVPS    ,   FLAGS = 0,   REEL =  1,   FILE =     26               
             37,   MPTX    ,   FLAGS = 0,   REEL =  0,   FILE =      0               
             38,   PCOMPS  ,   FLAGS = 0,   REEL =  0,   FILE =      0               
             39,   EPTX    ,   FLAGS = 0,   REEL =  0,   FILE =      0               
             40,   REENTER AT DMAP SEQUENCE NUMBER    24                             
             41,   MPT     ,   FLAGS = 0,   REEL =  1,   FILE =     27               
             42,   EPT     ,   FLAGS = 0,   REEL =  1,   FILE =     28               
1                                                                           /    95 SUN SOLARIS NASTRAN    / MAY 17, 95 / PAGE     5
                                                                                                                                    
0        N A S T R A N    E X E C U T I V E    C O N T R O L    D E C K    E C H O                                                  
0                                                                                                                                   
                                                                                                                                    
                                                                                                                                    
             43,   XVPS    ,   FLAGS = 0,   REEL =  1,   FILE =     29               
             44,   REENTER AT DMAP SEQUENCE NUMBER    28                             
             45,   KELM    ,   FLAGS = 0,   REEL =  1,   FILE =     30               
             46,   KDICT   ,   FLAGS = 0,   REEL =  1,   FILE =     31               
             47,   MELM    ,   FLAGS = 0,   REEL =  1,   FILE =     32               
             48,   MDICT   ,   FLAGS = 0,   REEL =  1,   FILE =     33               
             49,   XVPS    ,   FLAGS = 0,   REEL =  1,   FILE =     34               
             50,   REENTER AT DMAP SEQUENCE NUMBER    29                             
             51,   XVPS    ,   FLAGS = 0,   REEL =  1,   FILE =     35               
             52,   KGGX    ,   FLAGS = 0,   REEL =  0,   FILE =      0               
             53,   REENTER AT DMAP SEQUENCE NUMBER    31                             
             54,   KGGX    ,   FLAGS = 0,   REEL =  1,   FILE =     36               
             55,   XVPS    ,   FLAGS = 0,   REEL =  1,   FILE =     37               
             56,   REENTER AT DMAP SEQUENCE NUMBER    32                             
             57,   XVPS    ,   FLAGS = 0,   REEL =  1,   FILE =     38               
             58,   KDICT   ,   FLAGS = 0,   REEL =  0,   FILE =      0               
             59,   KELM    ,   FLAGS = 0,   REEL =  0,   FILE =      0               
             60,   REENTER AT DMAP SEQUENCE NUMBER    35                             
             61,   MGG     ,   FLAGS = 0,   REEL =  1,   FILE =     39               
             62,   XVPS    ,   FLAGS = 0,   REEL =  1,   FILE =     40               
             63,   REENTER AT DMAP SEQUENCE NUMBER    36                             
             64,   XVPS    ,   FLAGS = 0,   REEL =  1,   FILE =     41               
             65,   MDICT   ,   FLAGS = 0,   REEL =  0,   FILE =      0               
             66,   MELM    ,   FLAGS = 0,   REEL =  0,   FILE =      0               
             67,   REENTER AT DMAP SEQUENCE NUMBER    38                             
             68,   OGPWG   ,   FLAGS = 0,   REEL =  1,   FILE =     42               
             69,   XVPS    ,   FLAGS = 0,   REEL =  1,   FILE =     43               
             70,   REENTER AT DMAP SEQUENCE NUMBER    41                             
             71,   XVPS    ,   FLAGS = 0,   REEL =  1,   FILE =     44               
             72,   KGG     ,   FLAGS = 0,   REEL =  0,   FILE =      0               
             73,   REENTER AT DMAP SEQUENCE NUMBER    43                             
             74,   KGG     ,   FLAGS = 0,   REEL =  1,   FILE =     45               
             75,   XVPS    ,   FLAGS = 0,   REEL =  1,   FILE =     46               
             76,   REENTER AT DMAP SEQUENCE NUMBER    45                             
             77,   GPST    ,   FLAGS = 0,   REEL =  1,   FILE =     47               
             78,   XVPS    ,   FLAGS = 0,   REEL =  1,   FILE =     48               
             79,   REENTER AT DMAP SEQUENCE NUMBER    47                             
             80,   USET    ,   FLAGS = 0,   REEL =  1,   FILE =     49               
             81,   XVPS    ,   FLAGS = 0,   REEL =  1,   FILE =     50               
             82,   RG      ,   FLAGS = 0,   REEL =  0,   FILE =      0               
             83,   ASET    ,   FLAGS = 0,   REEL =  0,   FILE =      0               
             84,   OGPST   ,   FLAGS = 0,   REEL =  0,   FILE =      0               
             85,   REENTER AT DMAP SEQUENCE NUMBER    50                             
             86,   XVPS    ,   FLAGS = 0,   REEL =  1,   FILE =     51               
             87,   GM      ,   FLAGS = 0,   REEL =  0,   FILE =      0               
             88,   GMD     ,   FLAGS = 0,   REEL =  0,   FILE =      0               
             89,   GO      ,   FLAGS = 0,   REEL =  0,   FILE =      0               
1                                                                           /    95 SUN SOLARIS NASTRAN    / MAY 17, 95 / PAGE     6
                                                                                                                                    
0        N A S T R A N    E X E C U T I V E    C O N T R O L    D E C K    E C H O                                                  
0                                                                                                                                   
                                                                                                                                    
                                                                                                                                    
             90,   GOD     ,   FLAGS = 0,   REEL =  0,   FILE =      0               
             91,   KFS     ,   FLAGS = 0,   REEL =  0,   FILE =      0               
             92,   PSF     ,   FLAGS = 0,   REEL =  0,   FILE =      0               
             93,   QPC     ,   FLAGS = 0,   REEL =  0,   FILE =      0               
             94,   KLR     ,   FLAGS = 0,   REEL =  0,   FILE =      0               
             95,   KRR     ,   FLAGS = 0,   REEL =  0,   FILE =      0               
             96,   MLR     ,   FLAGS = 0,   REEL =  0,   FILE =      0               
             97,   MRR     ,   FLAGS = 0,   REEL =  0,   FILE =      0               
             98,   DM      ,   FLAGS = 0,   REEL =  0,   FILE =      0               
             99,   MR      ,   FLAGS = 0,   REEL =  0,   FILE =      0               
            100,   MDD     ,   FLAGS = 0,   REEL =  0,   FILE =      0               
            101,   REENTER AT DMAP SEQUENCE NUMBER    51                             
            102,   KGG     ,   FLAGS = 4,   REEL =  1,   FILE =     45               
            103,   KNN     ,   FLAGS = 4,   REEL =  1,   FILE =     45               
            104,   MGG     ,   FLAGS = 4,   REEL =  1,   FILE =     39               
            105,   MNN     ,   FLAGS = 4,   REEL =  1,   FILE =     39               
            106,   XVPS    ,   FLAGS = 0,   REEL =  1,   FILE =     52               
            107,   REENTER AT DMAP SEQUENCE NUMBER    56                             
            108,   XVPS    ,   FLAGS = 0,   REEL =  1,   FILE =     53               
            109,   KFF     ,   FLAGS = 0,   REEL =  0,   FILE =      0               
            110,   MFF     ,   FLAGS = 0,   REEL =  0,   FILE =      0               
            111,   REENTER AT DMAP SEQUENCE NUMBER    58                             
            112,   KFF     ,   FLAGS = 0,   REEL =  1,   FILE =     54               
            113,   KFS     ,   FLAGS = 0,   REEL =  1,   FILE =     55               
            114,   MFF     ,   FLAGS = 0,   REEL =  1,   FILE =     56               
            115,   XVPS    ,   FLAGS = 0,   REEL =  1,   FILE =     57               
            116,   REENTER AT DMAP SEQUENCE NUMBER    60                             
            117,   KFF     ,   FLAGS = 4,   REEL =  1,   FILE =     54               
            118,   KAA     ,   FLAGS = 4,   REEL =  1,   FILE =     54               
            119,   XVPS    ,   FLAGS = 0,   REEL =  1,   FILE =     58               
            120,   REENTER AT DMAP SEQUENCE NUMBER    61                             
            121,   MFF     ,   FLAGS = 4,   REEL =  1,   FILE =     56               
            122,   MAA     ,   FLAGS = 4,   REEL =  1,   FILE =     56               
            123,   XVPS    ,   FLAGS = 0,   REEL =  1,   FILE =     59               
            124,   REENTER AT DMAP SEQUENCE NUMBER    66                             
            125,   KLL     ,   FLAGS = 4,   REEL =  1,   FILE =     54               
            126,   XVPS    ,   FLAGS = 0,   REEL =  1,   FILE =     60               
            127,   REENTER AT DMAP SEQUENCE NUMBER    78                             
            128,   GPLD    ,   FLAGS = 0,   REEL =  1,   FILE =     61               
            129,   SILD    ,   FLAGS = 0,   REEL =  1,   FILE =     62               
            130,   USETD   ,   FLAGS = 0,   REEL =  1,   FILE =     63               
            131,   DLT     ,   FLAGS = 0,   REEL =  1,   FILE =     64               
            132,   PSDL    ,   FLAGS = 0,   REEL =  1,   FILE =     65               
            133,   FRL     ,   FLAGS = 0,   REEL =  1,   FILE =     66               
            134,   EED     ,   FLAGS = 0,   REEL =  1,   FILE =     67               
            135,   EQDYN   ,   FLAGS = 0,   REEL =  1,   FILE =     68               
            136,   XVPS    ,   FLAGS = 0,   REEL =  1,   FILE =     69               
1                                                                           /    95 SUN SOLARIS NASTRAN    / MAY 17, 95 / PAGE     7
                                                                                                                                    
0        N A S T R A N    E X E C U T I V E    C O N T R O L    D E C K    E C H O                                                  
0                                                                                                                                   
                                                                                                                                    
                                                                                                                                    
            137,   TFPOOL  ,   FLAGS = 0,   REEL =  0,   FILE =      0               
            138,   REENTER AT DMAP SEQUENCE NUMBER    80                             
            139,   XVPS    ,   FLAGS = 0,   REEL =  1,   FILE =     70               
            140,   UEVF    ,   FLAGS = 0,   REEL =  0,   FILE =      0               
            141,   REENTER AT DMAP SEQUENCE NUMBER    81                             
            142,   XVPS    ,   FLAGS = 0,   REEL =  1,   FILE =     71               
            143,   REENTER AT DMAP SEQUENCE NUMBER    83                             
            144,   LAMA    ,   FLAGS = 0,   REEL =  1,   FILE =     72               
            145,   PHIA    ,   FLAGS = 0,   REEL =  1,   FILE =     73               
            146,   MI      ,   FLAGS = 0,   REEL =  1,   FILE =     74               
            147,   OEIGS   ,   FLAGS = 0,   REEL =  1,   FILE =     75               
            148,   XVPS    ,   FLAGS = 0,   REEL =  1,   FILE =     76               
            149,   REENTER AT DMAP SEQUENCE NUMBER    90                             
            150,   XVPS    ,   FLAGS = 0,   REEL =  1,   FILE =     77               
            151,   OUHVC1  ,   FLAGS = 0,   REEL =  0,   FILE =      0               
            152,   OUHVC2  ,   FLAGS = 0,   REEL =  0,   FILE =      0               
            153,   XYPLTFA ,   FLAGS = 0,   REEL =  0,   FILE =      0               
            154,   OPPC1   ,   FLAGS = 0,   REEL =  0,   FILE =      0               
            155,   OQPC1   ,   FLAGS = 0,   REEL =  0,   FILE =      0               
            156,   OUPVC1  ,   FLAGS = 0,   REEL =  0,   FILE =      0               
            157,   OESC1   ,   FLAGS = 0,   REEL =  0,   FILE =      0               
            158,   OEFC1   ,   FLAGS = 0,   REEL =  0,   FILE =      0               
            159,   OPPC2   ,   FLAGS = 0,   REEL =  0,   FILE =      0               
            160,   OQPC2   ,   FLAGS = 0,   REEL =  0,   FILE =      0               
            161,   OUPVC2  ,   FLAGS = 0,   REEL =  0,   FILE =      0               
            162,   OESC2   ,   FLAGS = 0,   REEL =  0,   FILE =      0               
            163,   OEFC2   ,   FLAGS = 0,   REEL =  0,   FILE =      0               
            164,   XYPLTF  ,   FLAGS = 0,   REEL =  0,   FILE =      0               
            165,   PSDF    ,   FLAGS = 0,   REEL =  0,   FILE =      0               
            166,   AUTO    ,   FLAGS = 0,   REEL =  0,   FILE =      0               
            167,   XYPLTR  ,   FLAGS = 0,   REEL =  0,   FILE =      0               
            168,   K2PP    ,   FLAGS = 0,   REEL =  0,   FILE =      0               
            169,   M2PP    ,   FLAGS = 0,   REEL =  0,   FILE =      0               
            170,   B2PP    ,   FLAGS = 0,   REEL =  0,   FILE =      0               
            171,   K2DD    ,   FLAGS = 0,   REEL =  0,   FILE =      0               
            172,   M2DD    ,   FLAGS = 0,   REEL =  0,   FILE =      0               
            173,   B2DD    ,   FLAGS = 0,   REEL =  0,   FILE =      0               
            174,   OPPCA   ,   FLAGS = 0,   REEL =  0,   FILE =      0               
            175,   IQP1    ,   FLAGS = 0,   REEL =  0,   FILE =      0               
            176,   IPHIP1  ,   FLAGS = 0,   REEL =  0,   FILE =      0               
            177,   IES1    ,   FLAGS = 0,   REEL =  0,   FILE =      0               
            178,   IEF1    ,   FLAGS = 0,   REEL =  0,   FILE =      0               
            179,   OPPCB   ,   FLAGS = 0,   REEL =  0,   FILE =      0               
            180,   IQP2    ,   FLAGS = 0,   REEL =  0,   FILE =      0               
            181,   IPHIP2  ,   FLAGS = 0,   REEL =  0,   FILE =      0               
            182,   IES2    ,   FLAGS = 0,   REEL =  0,   FILE =      0               
            183,   IEF2    ,   FLAGS = 0,   REEL =  0,   FILE =      0               
1                                                                           /    95 SUN SOLARIS NASTRAN    / MAY 17, 95 / PAGE     8
                                                                                                                                    
0        N A S T R A N    E X E C U T I V E    C O N T R O L    D E C K    E C H O                                                  
0                                                                                                                                   
                                                                                                                                    
                                                                                                                                    
            184,   ZQPC2   ,   FLAGS = 0,   REEL =  0,   FILE =      0               
            185,   ZUPVC2  ,   FLAGS = 0,   REEL =  0,   FILE =      0               
            186,   ZESC2   ,   FLAGS = 0,   REEL =  0,   FILE =      0               
            187,   ZEFC2   ,   FLAGS = 0,   REEL =  0,   FILE =      0               
            188,   ZQPC1   ,   FLAGS = 0,   REEL =  0,   FILE =      0               
            189,   ZUPVC1  ,   FLAGS = 0,   REEL =  0,   FILE =      0               
            190,   ZESC1   ,   FLAGS = 0,   REEL =  0,   FILE =      0               
            191,   ZEFC1   ,   FLAGS = 0,   REEL =  0,   FILE =      0               
            192,   REENTER AT DMAP SEQUENCE NUMBER    91                             
            193,   CASEXX  ,   FLAGS = 0,   REEL =  1,   FILE =     78               
            194,   XVPS    ,   FLAGS = 0,   REEL =  1,   FILE =     79               
            195,   REENTER AT DMAP SEQUENCE NUMBER    92                             
            196,   XVPS    ,   FLAGS = 0,   REEL =  1,   FILE =     80               
            197,   REENTER AT DMAP SEQUENCE NUMBER    93                             
            198,   XVPS    ,   FLAGS = 0,   REEL =  1,   FILE =     81               
            199,   REENTER AT DMAP SEQUENCE NUMBER    95                             
            200,   MDD     ,   FLAGS = 4,   REEL =  1,   FILE =     56               
            201,   XVPS    ,   FLAGS = 0,   REEL =  1,   FILE =     82               
            202,   REENTER AT DMAP SEQUENCE NUMBER    96                             
            203,   XVPS    ,   FLAGS = 0,   REEL =  1,   FILE =     83               
            204,   REENTER AT DMAP SEQUENCE NUMBER    97                             
            205,   MHH     ,   FLAGS = 0,   REEL =  1,   FILE =     84               
            206,   BHH     ,   FLAGS = 0,   REEL =  1,   FILE =     85               
            207,   KHH     ,   FLAGS = 0,   REEL =  1,   FILE =     86               
            208,   PHIDH   ,   FLAGS = 0,   REEL =  1,   FILE =     87               
            209,   XVPS    ,   FLAGS = 0,   REEL =  1,   FILE =     88               
            210,   REENTER AT DMAP SEQUENCE NUMBER   100                             
            211,   UHVF    ,   FLAGS = 0,   REEL =  1,   FILE =     89               
            212,   PSF     ,   FLAGS = 0,   REEL =  1,   FILE =     90               
            213,   PDF     ,   FLAGS = 0,   REEL =  1,   FILE =     91               
            214,   PPF     ,   FLAGS = 0,   REEL =  1,   FILE =     92               
            215,   XVPS    ,   FLAGS = 0,   REEL =  1,   FILE =     93               
            216,   REENTER AT DMAP SEQUENCE NUMBER   101                             
            217,   PDF     ,   FLAGS = 0,   REEL =  1,   FILE =     94               
            218,   XVPS    ,   FLAGS = 0,   REEL =  1,   FILE =     95               
            219,   REENTER AT DMAP SEQUENCE NUMBER   102                             
            220,   XVPS    ,   FLAGS = 0,   REEL =  1,   FILE =     96               
            221,   REENTER AT DMAP SEQUENCE NUMBER   128                             
            222,   PHIPH   ,   FLAGS = 0,   REEL =  1,   FILE =     97               
            223,   QPH     ,   FLAGS = 0,   REEL =  1,   FILE =     98               
            224,   XVPS    ,   FLAGS = 0,   REEL =  1,   FILE =     99               
            225,   REENTER AT DMAP SEQUENCE NUMBER   129                             
            226,   IPHIP1  ,   FLAGS = 0,   REEL =  1,   FILE =    100               
            227,   IEF1    ,   FLAGS = 0,   REEL =  1,   FILE =    101               
            228,   XVPS    ,   FLAGS = 0,   REEL =  1,   FILE =    102               
            229,   REENTER AT DMAP SEQUENCE NUMBER   130                             
            230,   OPPCA   ,   FLAGS = 0,   REEL =  1,   FILE =    103               
1                                                                           /    95 SUN SOLARIS NASTRAN    / MAY 17, 95 / PAGE     9
                                                                                                                                    
0        N A S T R A N    E X E C U T I V E    C O N T R O L    D E C K    E C H O                                                  
0                                                                                                                                   
                                                                                                                                    
                                                                                                                                    
            231,   XVPS    ,   FLAGS = 0,   REEL =  1,   FILE =    104               
            232,   REENTER AT DMAP SEQUENCE NUMBER   131                             
            233,   OPPCA   ,   FLAGS = 4,   REEL =  1,   FILE =    103               
            234,   OPPC1   ,   FLAGS = 4,   REEL =  1,   FILE =    103               
            235,   XVPS    ,   FLAGS = 0,   REEL =  1,   FILE =    105               
            236,   REENTER AT DMAP SEQUENCE NUMBER   133                             
            237,   IPHIP2  ,   FLAGS = 0,   REEL =  1,   FILE =    106               
            238,   IEF2    ,   FLAGS = 0,   REEL =  1,   FILE =    107               
            239,   OPPCB   ,   FLAGS = 0,   REEL =  1,   FILE =    108               
            240,   XVPS    ,   FLAGS = 0,   REEL =  1,   FILE =    109               
            241,   REENTER AT DMAP SEQUENCE NUMBER   134                             
            242,   OPPCB   ,   FLAGS = 4,   REEL =  1,   FILE =    108               
            243,   OPPC2   ,   FLAGS = 4,   REEL =  1,   FILE =    108               
            244,   XVPS    ,   FLAGS = 0,   REEL =  1,   FILE =    110               
            245,   REENTER AT DMAP SEQUENCE NUMBER   135                             
            246,   ZUPVC2  ,   FLAGS = 0,   REEL =  1,   FILE =    111               
            247,   ZEFC2   ,   FLAGS = 0,   REEL =  1,   FILE =    112               
            248,   XVPS    ,   FLAGS = 0,   REEL =  1,   FILE =    113               
            249,   REENTER AT DMAP SEQUENCE NUMBER   136                             
            250,   ZUPVC2  ,   FLAGS = 4,   REEL =  1,   FILE =    111               
            251,   OUPVC2  ,   FLAGS = 4,   REEL =  1,   FILE =    111               
            252,   ZEFC2   ,   FLAGS = 4,   REEL =  1,   FILE =    112               
            253,   OEFC2   ,   FLAGS = 4,   REEL =  1,   FILE =    112               
            254,   XVPS    ,   FLAGS = 0,   REEL =  1,   FILE =    114               
            255,   REENTER AT DMAP SEQUENCE NUMBER   144                             
            256,   XYPLTF  ,   FLAGS = 0,   REEL =  1,   FILE =    115               
            257,   XVPS    ,   FLAGS = 0,   REEL =  1,   FILE =    116               
            258,   REENTER AT DMAP SEQUENCE NUMBER   151                             
            259,   PSDF    ,   FLAGS = 0,   REEL =  1,   FILE =    117               
            260,   AUTO    ,   FLAGS = 0,   REEL =  1,   FILE =    118               
            261,   XVPS    ,   FLAGS = 0,   REEL =  1,   FILE =    119               
            262,   REENTER AT DMAP SEQUENCE NUMBER   153                             
            263,   XYPLTR  ,   FLAGS = 0,   REEL =  1,   FILE =    120               
            264,   XVPS    ,   FLAGS = 0,   REEL =  1,   FILE =    121               
            265,   REENTER AT DMAP SEQUENCE NUMBER   176                             
            266,   XVPS    ,   FLAGS = 0,   REEL =  1,   FILE =    122               
            267,   DUMMY   ,   FLAGS = 0,   REEL =  0,   FILE =      0               
     $ END OF CHECKPOINT DICTIONARY                                                  
0*** $   END READFILE                                                                
     APP   DISPLACEMENT                                                              
     SOL   1,9                                                                       
     TIME  5                                                                         
     CEND                                                                            


0*** USER INFORMATION MESSAGE, TURN DIAG 48 ON FOR NASTRAN RELEASE NEWS, DIAG DEFINITION, NEW DMAP
         MODULES AND NEW BULKDATA CARDS INFORMATION
0*** SWITCHED SOLUTION FOR RESTART - OLD SOLUTION =  11, NEW SOLUTION =   1, BIT NUMBER = 197
1     10 CELL BEAM  RESTART WITH ENFORCED DEFORMATION, GRAVITY LOAD         /    95 SUN SOLARIS NASTRAN    / MAY 17, 95 / PAGE    10
      NASTRAN DEMONSTRATION PROBLEM NO. D11-01-1B                                                                                   
0     RIGID FORMAT SWITCH FROM 11 TO 1                                                                                              
0                                        C A S E    C O N T R O L   D E C K   E C H O                                               
                 CARD                                                                                                               
                 COUNT                                                                                                              
                  1      TITLE    = 10 CELL BEAM  RESTART WITH ENFORCED DEFORMATION, GRAVITY LOAD        
                  2      SUBTITLE = NASTRAN DEMONSTRATION PROBLEM NO. D11-01-1B                          
                  3      LABEL    = RIGID FORMAT SWITCH FROM 11 TO 1                                     
                  4        SPC    = 1                                                                    
                  5        DEFORM = 1102                                                                 
                  6        LOAD   = 1101                                                                 
                  7      OUTPUT                                                                          
                  8        DISPLACEMENTS = ALL                                                           
                  9        OLOAD         = ALL                                                           
                 10        ELFORCE       = ALL                                                           
                 11      BEGIN BULK                                                                      
1     10 CELL BEAM  RESTART WITH ENFORCED DEFORMATION, GRAVITY LOAD         /    95 SUN SOLARIS NASTRAN    / MAY 17, 95 / PAGE    11
      NASTRAN DEMONSTRATION PROBLEM NO. D11-01-1B                                                                                   
0     RIGID FORMAT SWITCH FROM 11 TO 1                                                                                              
0                                             I N P U T   B U L K   D A T A   D E C K   E C H O                                     
                                                                                                                                    
                                  ---1--- +++2+++ ---3--- +++4+++ ---5--- +++6+++ ---7--- +++8+++ ---9--- +++10+++                  
                              DEFORM  1102    10      0.089045                                                              
                              GRAV    1101            32.2    0.0     0.0     1.0                                           
                              ENDDATA                                                                                       


                        TOTAL COUNT=      2
0*** USER INFORMATION MESSAGE 207, BULK DATA DECK IS NOT SORTED. NASTRAN WILL RE-ORDER THE INPUT DECK.
1     10 CELL BEAM  RESTART WITH ENFORCED DEFORMATION, GRAVITY LOAD         /    95 SUN SOLARIS NASTRAN    / MAY 17, 95 / PAGE    12
      NASTRAN DEMONSTRATION PROBLEM NO. D11-01-1B                                                                                   
0     RIGID FORMAT SWITCH FROM 11 TO 1                                                                                              
0                                                 S O R T E D   B U L K    D A T A    E C H O                                       
                     CARD                                                                                                           
                     COUNT        ---1--- +++2+++ ---3--- +++4+++ ---5--- +++6+++ ---7--- +++8+++ ---9--- +++10+++                  
                    1-        CBAR    3       1       3       4       20.     .0      1.      1               
                    2-        CBAR    4       1       4       5       20.     .0      1.      1               
                    3-        CBAR    5       1       5       6       20.     .0      1.      1               
                    4-        CBAR    6       1       6       7       20.     .0      1.      1               
                    5-        CBAR    7       1       7       8       20.     .0      1.      1               
                    6-        CBAR    8       1       8       9       20.     .0      1.      1               
                    7-        CBAR    9       1       9       10      20.     .0      1.      1               
                    8-        CBAR    10      1       10      11      20.     .0      1.      1               
                    9-        CONM2  *11              1                               5.34604-3       *M1     
                   10-        *M1     .0                                                                      
                   11-        CONM2  *12              2                               1.069208-2      *M2     
                   12-        *M2     .0              .0                                                      
                   13-        CONM2  *13              3                               5.34604-3       *M3     
                   14-        *M3                                                                             
                   15-        DAREA   2       5       5       -100.                                           
                   16-        DAREA   2       6       3       50.     5       3       50.                     
                   17-        DAREA   2       7       3       50.     7       5       100.                    
                   18-        DAREA   3       6       3       100.                                            
                   19-        DAREA   510     6       3       1.0                                             
                   20-        DEFORM  1102    10      0.089045                                                
                   21-        DELAY   1       6       3       .5555-2                                         
                   22-        DLOAD   506     1.      1.      5       1.      6                               
                   23-        DLOAD   507     1.      1.      5       1.      7                               
                   24-        DLOAD   510     2.0     1.0     5101    1.0     5102                            
                   25-        DPHASE  1       6       3       30.                                             
                   26-        DPHASE  5102    6       3       -30.0                                           
                   27-        EIGR    2       INV     40.0    1000.0  3       5                       +EG     
                   28-        +EG     MASS                                                                    
                   29-        FREQ1   508     .0      5.0     40                                              
                   30-        GENEL   1101            2       1       2       3       2       5       +1      
                   31-        +1      3       1       3       3       3       5                       +2      
                   32-        +2      UD              1       1       1       3       1       5       *30     
                   33-        *30     Z               .89044935-8     .0              .0              *31     
                   34-        *31     .89044935-8     .0              .0              3.08928-6       *40     
                   35-        *40     -2.31696-6      .0              7.7232005-6     -2.31696-6      *41     
                   36-        *41     2.31696-6       .0              -6.950884-6     2.31696-6       *50     
                   37-        *50     1.7808987-8     .0              .0              24.714241-6     *51     
                   38-        *51     -9.26784-6      4.6339203-6                                     +60     
                   39-        +60     S       1.0     .0      .0      .0      1.0     -2.0    .0      +70     
                   40-        +70     .0      1.0     1.0     .0      .0      .0      1.0     -4.0    +80     
                   41-        +80     .0      .0      1.0                                                     
                   42-        GRAV    1101            32.2    0.0     0.0     1.0                             
                   43-        GRDSET                                                  246                     
                   44-        GRID    1               .0      .0      .0                                      
                   45-        GRID    2               2.      .0      .0                                      
                   46-        GRID    3               4.      .0      .0                                      
                   47-        GRID    4               6.      .0      .0                                      
1     10 CELL BEAM  RESTART WITH ENFORCED DEFORMATION, GRAVITY LOAD         /    95 SUN SOLARIS NASTRAN    / MAY 17, 95 / PAGE    13
      NASTRAN DEMONSTRATION PROBLEM NO. D11-01-1B                                                                                   

      RIGID FORMAT SWITCH FROM 11 TO 1                                                                                              

                                                  S O R T E D   B U L K    D A T A    E C H O                                       
                     CARD                                                                                                           
                     COUNT        ---1--- +++2+++ ---3--- +++4+++ ---5--- +++6+++ ---7--- +++8+++ ---9--- +++10+++                  
                   48-        GRID    5               8.      .0      .0                                      
                   49-        GRID    6               10.     .0      .0                                      
                   50-        GRID    7               12.     .0      .0                                      
                   51-        GRID    8               14.     .0      .0                                      
                   52-        GRID    9               16.     .0      .0                                      
                   53-        GRID    10              18.     .0      .0                                      
                   54-        GRID    11              20.     .0      .0                                      
                   55-        MAT1    1       10.4+6  4.+6            .2523-3                                 
                   56-        PARAM   GRDPNT  0                                                               
                   57-        PARAM   LMODES  4                                                               
                   58-        PBAR    1       1       21.18922.083    .083                                    
                   59-        RANDPS  11      1       1       .5              11                              
                   60-        RANDPS  11      1       3       .5              11                              
                   61-        RANDPS  11      2       2       1.0             11                              
                   62-        RANDPS  11      3       3       .5              11                              
                   63-        RANDT1  11      100     .0      .1                                              
                   64-        RLOAD1  5101    510                     5101                                    
                   65-        RLOAD1  5102    510             5102            5102                            
                   66-        RLOAD2  5       2                       1                                       
                   67-        RLOAD2  6       3               1       1       2                               
                   68-        RLOAD2  7       3       1               1                                       
                   69-        SPC     1       1       13              11      13                              
                   70-        SPC     11      1       13              11      3                               
                   71-        TABDMP1 11                                                              +DAMP   
                   72-        +DAMP   .0      .0      50.0    .02     ENDT                                    
                   73-        TABLED1 1                                                               +TAUU   
                   74-        +TAUU   .0      1.      100.    1.      ENDT                                    
                   75-        TABLED1 2                                                               +TAD21  
                   76-        +TAD21  .0      30.     100.    30.     ENDT                                    
                   77-        TABLED1 5101                                                            +TAD30  
                   78-        +TAD30  .0      75.0    100.    75.0    ENDT                                    
                   79-        TABLED1 5102                                                            +TAD31  
                   80-        +TAD31  .0      50.0    100.    50.0    ENDT                                    
                   81-        TABRND1 11                                                              +TR     
                   82-        +TR     -1.0    .0      .0      100.0   100.0   100.0   100.0   .0      +TR2    
                   83-        +TR2    101.0   .0      ENDT                                                    
                              ENDDATA
1     10 CELL BEAM  RESTART WITH ENFORCED DEFORMATION, GRAVITY LOAD         /    95 SUN SOLARIS NASTRAN    / MAY 17, 95 / PAGE    14
      NASTRAN DEMONSTRATION PROBLEM NO. D11-01-1B                                                                                   
0     RIGID FORMAT SWITCH FROM 11 TO 1                                                                                              
0*** USER INFORMATION MESSAGE 4145, THIS IS A MODIFIED RESTART INVOLVING RIGID FORMAT SWITCH.
0*** USER INFORMATION MESSAGE. CASE CONTROL AND BULK DATA DECK CHANGES AFFECTING THIS RESTART ARE INDICATED BELOW.

0*** USER INFORMATION MESSAGE. EFFECTIVE CASE CONTROL DECK CHANGES
 -----------------------------------


 MASK WORD - BIT POSITION ---- FLAG NAME ---- PACKED BIT POSITION

    17
                   2           SPC$                   10
                   3           LOAD$                  59
                   5           DEFORM$                59
                  17           POUT$                  19
                  31           NOLOOP$                31
0*** USER INFORMATION MESSAGE. EFFECTIVE BULK DATA DECK CHANGES
 --------------------------------


 MASK WORD - BIT POSITION - CARD/PARAM NAME - PACKED BIT POSITION

     1
                  26           GRAV                   61
     3
                  19           DEFORM                 59
1     10 CELL BEAM  RESTART WITH ENFORCED DEFORMATION, GRAVITY LOAD         /    95 SUN SOLARIS NASTRAN    / MAY 17, 95 / PAGE    15
      NASTRAN DEMONSTRATION PROBLEM NO. D11-01-1B                                                                                   
0     RIGID FORMAT SWITCH FROM 11 TO 1                                                                                              
0         COSMIC / NASTRAN DMAP COMPILER - SOURCE LISTING                                                                           
                                                                                                                                    
                                                                                                                                    
0  OPTIONS IN EFFECT GO      ERR=2   LIST    NODECK  NOREF   NOOSCAR 
   -----------------


       1  BEGIN    DISP 01 - STATIC ANALYSIS - APR. 1995 $                        
+  +

       3  FILE     QG=APPEND/PGG=APPEND/UGV=APPEND/GM=SAVE/KNN=SAVE $             
+  +

       4  SETVAL   //V,Y,INTERACT/0/V,Y,SYS21/0 $                                 
+  *

       5  PARAM    //*MPY*/CARDNO/0/0 $                                           
+  *

       6  COMPOFF  1,INTERACT $                                                   

       7  PRECHK   ALL $                                                          

       8  COMPON   1,INTERACT $                                                   

      10  COMPOFF  LBLINT02,SYS21 $                                               

      11  GP1      GEOM1,GEOM2,/GPL,EQEXIN,GPDT,CSTM,BGPDT,SIL/S,N,LUSET/         
                   NOGPDT/ALWAYS=-1 $                                             

      12  ANISOP   GEOM1,EPT,BGPDT,EQEXIN,MPT/MPTA/S,N,ISOP $                     

      13  EQUIV    MPTA,MPT/ISOP $                                                

      14  PLTTRAN  BGPDT,SIL/BGPDP,SIP/LUSET/S,N,LUSEP $                          

      15  GP2      GEOM2,EQEXIN/ECT $                                             

      16  PARAML   PCDB//*PRES*////JUMPPLOT $                                     

      17  PURGE    PLTSETX,PLTPAR,GPSETS,ELSETS/JUMPPLOT $                        

      18  COND     P1,JUMPPLOT $                                                  

      19  PLTSET   PCDB,EQEXIN,ECT,EPT/PLTSETX,PLTPAR,GPSETS,ELSETS/S,N,NSIL/     
                   S,N,JUMPPLOT $                                                 

      20  PRTMSG   PLTSETX// $                                                    

      21  PARAM    //*MPY*/PLTFLG/1/1 $                                           

      22  PARAM    //*MPY*/PFILE/0/0 $                                            
1     10 CELL BEAM  RESTART WITH ENFORCED DEFORMATION, GRAVITY LOAD         /    95 SUN SOLARIS NASTRAN    / MAY 17, 95 / PAGE    16
      NASTRAN DEMONSTRATION PROBLEM NO. D11-01-1B                                                                                   

      RIGID FORMAT SWITCH FROM 11 TO 1                                                                                              

          COSMIC / NASTRAN DMAP COMPILER - SOURCE LISTING                                                                           
                                                                                                                                    
                                                                                                                                    

      23  COND     P1,JUMPPLOT $                                                  

      24  PLOT     PLTPAR,GPSETS,ELSETS,CASECC,BGPDT,EQEXIN,SIL,,ECT,,,,/PLOTX1/  
                   NSIL/LUSET/S,N,JUMPPLOT/S,N,PLTFLG/S,N,PFILE  $                

      25  PRTMSG   PLOTX1// $                                                     

      26  LABEL    P1 $                                                           
+  +

      27  GP3      GEOM3,EQEXIN,GEOM2/SLT,GPTT/S,N,NOGRAV/NEVER=1 $               
+  *

      28  PARAM    //*AND*/NOMGG/NOGRAV/V,Y,GRDPNT=-1 $                           
+  *

      29  TA1      ECT,EPT,BGPDT,SIL,GPTT,CSTM,MPT,EQEXIN/EST,GEI,GPECT,,,MPTX,   
                   PCOMPS,EPTX/LUSET/S,N,NOSIMP/1/S,N,NOGENL/GENEL/S,N,COMPS $    

      30  EQUIV    MPTX,MPT/COMPS/EPTX,EPT/COMPS $                                
+  *

      31  PARAM    //*AND*/NOELMT/NOGENL/NOSIMP $                                 
+  *

      32  COND     ERROR4,NOELMT $                                                
+  *

      33  PURGE    KGGX/NOSIMP $                                                  

      36  COND     LBL1,NOSIMP $                                                  
+  *

      37  PARAM    //*ADD*/NOKGGX/1/0 $                                           

      39  EMG      EST,CSTM,MPT,DIT,GEOM2,/KELM,KDICT,MELM,MDICT,,,/S,N,NOKGGX/   
+  *
                   S,N,NOMGG////C,Y,COUPMASS/C,Y,CPBAR/                           
                   C,Y,CPROD/C,Y,CPQUAD1/C,Y,CPQUAD2/C,Y,CPTRIA1/C,Y,CPTRIA2/     
                   C,Y,CPTUBE/C,Y,CPQDPLT/C,Y,CPTRPLT/C,Y,CPTRBSC/                
                   C,Y,VOLUME/C,Y,SURFACE $                                       

      40  COND     JMPKGG,NOKGGX $                                                

      41  EMA      GPECT,KDICT,KELM/KGGX $                                        

      42  LABEL    JMPKGG $                                                       
+  +

      43  PURGE    MGG/NOMGG $                                                    
+  *

      44  COND     JMPMGG,NOMGG $                                                 
+  *

      45  EMA      GPECT,MDICT,MELM/MGG/-1/C,Y,WTMASS=1.0 $                       
+  *
1     10 CELL BEAM  RESTART WITH ENFORCED DEFORMATION, GRAVITY LOAD         /    95 SUN SOLARIS NASTRAN    / MAY 17, 95 / PAGE    17
      NASTRAN DEMONSTRATION PROBLEM NO. D11-01-1B                                                                                   

      RIGID FORMAT SWITCH FROM 11 TO 1                                                                                              

          COSMIC / NASTRAN DMAP COMPILER - SOURCE LISTING                                                                           
                                                                                                                                    
                                                                                                                                    

      46  PURGE    MDICT,MELM/ALWAYS $                                            
+  *

      47  LABEL    JMPMGG $                                                       
+  +

      48  COND     LBL1,GRDPNT $                                                  
+  *

      49  COND     ERROR2,NOMGG $                                                 
+  *

      50  GPWG     BGPDP,CSTM,EQEXIN,MGG/OGPWG/V,Y,GRDPNT/C,Y,WTMASS $            
+  *

      51  OFP      OGPWG,,,,,//S,N,CARDNO $                                       
+  *

      52  LABEL    LBL1 $                                                         
+  +

      53  EQUIV    KGGX,KGG/NOGENL $                                              

      54  COND     LBL11A,NOGENL $                                                

      55  SMA3     GEI,KGGX/KGG/LUSET/NOGENL/NOSIMP $                             

      56  LABEL    LBL11A $                                                       
+  +

      57  GPSTGEN  KGG,SIL/GPST $                                                 

      58  PARAM    //*MPY*/NSKIP/0/0 $                                            
+  *

      59  LABEL    LBL11 $                                                        
+  +

      60  GP4      CASECC,GEOM4,EQEXIN,GPDT,BGPDT,CSTM,GPST/RG,YS,USET,           
+  *
                   ASET,OGPST/LUSET/S,N,MPCF1/S,N,MPCF2/S,N,SINGLE/S,N,OMIT/      
                   S,N,REACT/S,N,NSKIP/S,N,REPEAT/S,N,NOSET/S,N,NOL/S,N,NOA/      
                   C,Y,ASETOUT/C,Y,AUTOSPC $                                      

      61  OFP      OGPST,,,,,//S,N,CARDNO $                                       
+  *

      62  COND     ERROR3,NOL $                                                   
+  *

      63  PARAM    //*AND*/NOSR/SINGLE/REACT $                                    
+  *

      64  PURGE    KRR,KLR,QR,DM/REACT/GM/MPCF1/GO,KOO,LOO,PO,UOOV,RUOV/OMIT/PS,  
+  *
                   KFS,KSS/SINGLE/QG/NOSR $                                       

      65  EQUIV    KGG,KNN/MPCF1 $                                                

      66  COND     LBL2,MPCF2 $                                                   
1     10 CELL BEAM  RESTART WITH ENFORCED DEFORMATION, GRAVITY LOAD         /    95 SUN SOLARIS NASTRAN    / MAY 17, 95 / PAGE    18
      NASTRAN DEMONSTRATION PROBLEM NO. D11-01-1B                                                                                   

      RIGID FORMAT SWITCH FROM 11 TO 1                                                                                              

          COSMIC / NASTRAN DMAP COMPILER - SOURCE LISTING                                                                           
                                                                                                                                    
                                                                                                                                    

      67  MCE1     USET,RG/GM $                                                   

      68  MCE2     USET,GM,KGG,,,/KNN,,, $                                        

      69  LABEL    LBL2 $                                                         
+  +

      70  EQUIV    KNN,KFF/SINGLE $                                               
+  *

      71  COND     LBL3,SINGLE $                                                  
+  *

      72  SCE1     USET,KNN,,,/KFF,KFS,KSS,,, $                                   
+  *

      73  LABEL    LBL3 $                                                         
+  +

      74  EQUIV    KFF,KAA/OMIT $                                                 
+  *

      75  COND     LBL5,OMIT $                                                    
+  *

      76  SMP1     USET,KFF,,,/GO,KAA,KOO,LOO,,,,, $                              
+  *

      77  LABEL    LBL5 $                                                         
+  +

      78  EQUIV    KAA,KLL/REACT $                                                
+  *

      79  COND     LBL6,REACT $                                                   
+  *

      80  RBMG1    USET,KAA,/KLL,KLR,KRR,,, $                                     
+  *

      81  LABEL    LBL6 $                                                         
+  +

      82  RBMG2    KLL/LLL $                                                      
+  *

      83  COND     LBL7,REACT $                                                   
+  *

      84  RBMG3    LLL,KLR,KRR/DM $                                               
+  *

      85  LABEL    LBL7 $                                                         
+  +

      86  SSG1     SLT,BGPDT,CSTM,SIL,EST,MPT,GPTT,EDT,MGG,CASECC,DIT,PCOMPS/     
+  *
                   PG,,,,/LUSET/NSKIP/COMPS $                                     

      87  EQUIV    PG,PL/NOSET $                                                  
+  *

      88  COND     LBL10,NOSET $                                                  
+  *

      89  SSG2     USET,GM,YS,KFS,GO,DM,PG/QR,PO,PS,PL $                          
+  *
1     10 CELL BEAM  RESTART WITH ENFORCED DEFORMATION, GRAVITY LOAD         /    95 SUN SOLARIS NASTRAN    / MAY 17, 95 / PAGE    19
      NASTRAN DEMONSTRATION PROBLEM NO. D11-01-1B                                                                                   

      RIGID FORMAT SWITCH FROM 11 TO 1                                                                                              

          COSMIC / NASTRAN DMAP COMPILER - SOURCE LISTING                                                                           
                                                                                                                                    
                                                                                                                                    

      90  LABEL    LBL10 $                                                        
+  +

      91  SSG3     LLL,KLL,PL,LOO,KOO,PO/ULV,UOOV,RULV,RUOV/OMIT/V,Y,IRES=-1/     
+  *
                   NSKIP/S,N,EPSI $                                               

      92  COND     LBL9,IRES $                                                    
+  *

      93  MATGPR   GPL,USET,SIL,RULV//*L* $                                       
+  *

      94  MATGPR   GPL,USET,SIL,RUOV//*O* $                                       
+  *

      95  LABEL    LBL9 $                                                         
+  +

      96  SDR1     USET,PG,ULV,UOOV,YS,GO,GM,PS,KFS,KSS,QR/UGV,PGG,QG/NSKIP/      
+  *
                   *STATICS* $                                                    

      97  COND     LBL8,REPEAT $                                                  
+  *

      98  REPT     LBL11,360 $                                                    
+  *

      99  JUMP     ERROR1 $                                                       
+  *

     100  PARAM    //*NOT*/TEST/REPEAT $                                          
+  *

     101  COND     ERROR5,TEST $                                                  
+  *

     102  LABEL    LBL8 $                                                         
+  +

     103  GPFDR    CASECC,UGV,KELM,KDICT,ECT,EQEXIN,GPECT,PGG,QG/ONRGY1,OGPFB1/   
+  *
                   *STATICS* $                                                    

     104  PURGE    KDICT,KELM/REPEAT $                                            
+  *

     105  OFP      ONRGY1,OGPFB1,,,,//S,N,CARDNO $                                
+  *

     106  COND     NOMPCF,GRDEQ $                                                 

     107  EQMCK    CASECC,EQEXIN,GPL,BGPDT,SIL,USET,KGG,GM,UGV,PGG,QG,CSTM/       
                   OQM1/V,Y,OPT=0/V,Y,GRDEQ/NSKIP $                               

     108  OFP      OQM1,,,,,//S,N,CARDNO $                                        

     109  LABEL    NOMPCF $                                                       
+  +

     110  SDR2     CASECC,CSTM,MPT,DIT,EQEXIN,SIL,GPTT,EDT,BGPDP,,QG,UGV,EST,     
+  *
1     10 CELL BEAM  RESTART WITH ENFORCED DEFORMATION, GRAVITY LOAD         /    95 SUN SOLARIS NASTRAN    / MAY 17, 95 / PAGE    20
      NASTRAN DEMONSTRATION PROBLEM NO. D11-01-1B                                                                                   
0     RIGID FORMAT SWITCH FROM 11 TO 1                                                                                              
0         COSMIC / NASTRAN DMAP COMPILER - SOURCE LISTING                                                                           
                                                                                                                                    
                                                                                                                                    
                   XYCDB,PGG,PCOMPS/OPG1,OQG1,OUGV1,OES1,OEF1,PUGV1,OES1L,        
                   OEF1L/*STATICS*/S,N,NOSORT2/-1/S,N,STRNFLG/COMPS $             

     111  COND     LBLSTRS,STRESS $                                               
+  *

     112  CURV     OES1,MPT,CSTM,EST,SIL,GPL/OES1M,OES1G/V,Y,STRESS/              
+  *
                   V,Y,NINTPTS $                                                  

     113  LABEL    LBLSTRS $                                                      
+  +

     114  PURGE    OES1M/STRESS $                                                 
+  *

     115  COND     LBLSTRN,STRNFLG $                                              
+  *

     116  SDR2     CASECC,CSTM,MPT,DIT,EQEXIN,SIL,GPTT,EDT,BGPDT,,,UGV,EST,,,/    
+  *
                   ,,,OES1A,,,,/*STATICS*//1 $                                    

     117  COND     LBLSTRN,STRAIN $                                               
+  *

     118  CURV     OES1A,MPT,CSTM,EST,SIL,GPL/OES1AM,OES1AG/V,Y,STRAIN/           
+  *
                   V,Y,NINTPTS $                                                  

     119  LABEL    LBLSTRN $                                                      
+  +

     120  PURGE    OES1A/STRNFLG $                                                
+  *

     121  COND     LBL17,NOSORT2 $                                                
+  *

     122  SDR3     OUGV1,OPG1,OQG1,OEF1,OES1,/OUGV2,OPG2,OQG2,OEF2,OES2, $        
+  *

     123  PARAM    //*SUB*/PRTSORT2/NOSORT2/1 $                                   
+  *

     124  COND     LBLSORT1,PRTSORT2 $                                            
+  *

     125  OFP      OUGV2,OPG2,OQG2,OEF2,OES2,//S,N,CARDNO $                       
+  *

     126  SCAN     CASECC,OES2,OEF2,,/OESF2,/*RF* $                               
+  *

     127  OFP      OESF2,,,,,//S,N,CARDNO $                                       
+  *

     128  JUMP     LBLXYPLT $                                                     
+  *

     129  LABEL    LBLSORT1 $                                                     
+  +

     130  OFP      OUGV1,OPG1,OQG1,OEF1,OES1,//S,N,CARDNO $                       
+  *

     131  OFP      OEF1L,OES1L,,,,//S,N,CARDNO $                                  
+  *
1     10 CELL BEAM  RESTART WITH ENFORCED DEFORMATION, GRAVITY LOAD         /    95 SUN SOLARIS NASTRAN    / MAY 17, 95 / PAGE    21
      NASTRAN DEMONSTRATION PROBLEM NO. D11-01-1B                                                                                   

      RIGID FORMAT SWITCH FROM 11 TO 1                                                                                              

          COSMIC / NASTRAN DMAP COMPILER - SOURCE LISTING                                                                           
                                                                                                                                    
                                                                                                                                    

     132  SCAN     CASECC,OES1,OEF1,OES1L,OEF1L/OESF1,OESF1L/*RF* $               
+  *

     133  OFP      OESF1,OESF1L,,,,//S,N,CARDNO $                                 
+  *

     134  LABEL    LBLXYPLT $                                                     
+  +

     135  OFP      OES1M,OES1G,OES1A,OES1AM,OES1AG,//S,N,CARDNO $                 
+  *

     136  XYTRAN   XYCDB,OPG2,OQG2,OUGV2,OES2,OEF2/XYPLTT/*TRAN*/*PSET*/S,N,      
                   PFILE/S,N,CARDNO $                                             

     137  XYPLOT   XYPLTT// $                                                     

     138  JUMP     DPLOT $                                                        

     139  LABEL    LBL17 $                                                        
+  +

     140  PURGE    OUGV2/NOSORT2 $                                                
+  *

     146  OFP      OUGV1,OPG1,OQG1,OEF1,OES1,//S,N,CARDNO $                       
+  *

     147  OFP      OEF1L,OES1L,,,,//S,N,CARDNO $                                  
+  *

     148  SCAN     CASECC,OES1,OEF1,OES1L,OEF1L/OESF1X,OESF1Y/*RF* $              
+  *

     149  OFP      OESF1X,OESF1Y,,,,//S,N,CARDNO $                                
+  *

     150  OFP      OES1M,OES1G,OES1A,OES1AM,OES1AG,//S,N,CARDNO $                 
+  *

     151  LABEL    DPLOT $                                                        
+  +

     152  COND     P2,JUMPPLOT $                                                  

     153  PLOT     PLTPAR,GPSETS,ELSETS,CASECC,BGPDT,EQEXIN,SIP,PUGV1,,GPECT,OES1,
                   OES1L,ONRGY1/PLOTX2/NSIL/LUSEP/JUMPPLOT/PLTFLG/S,N,PFILE $     

     154  PRTMSG   PLOTX2// $                                                     

     155  LABEL    P2 $                                                           
+  +

     159  JUMP     FINIS $                                                        
+  *

     160  LABEL    ERROR1 $                                                       
+  +

     161  PRTPARM  //-1/*STATICS* $                                               
+  *
1     10 CELL BEAM  RESTART WITH ENFORCED DEFORMATION, GRAVITY LOAD         /    95 SUN SOLARIS NASTRAN    / MAY 17, 95 / PAGE    22
      NASTRAN DEMONSTRATION PROBLEM NO. D11-01-1B                                                                                   

      RIGID FORMAT SWITCH FROM 11 TO 1                                                                                              

          COSMIC / NASTRAN DMAP COMPILER - SOURCE LISTING                                                                           
                                                                                                                                    
                                                                                                                                    

     162  LABEL    ERROR2 $                                                       
+  +

     163  PRTPARM  //-2/*STATICS* $                                               
+  *

     164  LABEL    ERROR3 $                                                       
+  +

     165  PRTPARM  //-3/*STATICS* $                                               
+  *

     166  LABEL    ERROR4 $                                                       
+  +

     167  PRTPARM  //-4/*STATICS* $                                               
+  *

     168  LABEL    ERROR5 $                                                       
+  +

     169  PRTPARM  //-5/*STATICS* $                                               
+  *

     170  LABEL    FINIS $                                                        
+  +

     171  PURGE    DUMMY/ALWAYS $                                                 
+  *

     172  LABEL    LBLINT02 $                                                     
+  +

     173  COMPON   LBLINT01,SYS21 $                                               

     228  END      $                                                              
+  *
0*** USER WARNING MESSAGE   54,
     PARAMETER NAMED LMODES   NOT REFERENCED
0
0  + INDICATES DMAP INSTRUCTIONS THAT ARE PROCESSED ONLY AT DMAP COMPILATION TIME.
0  * INDICATES DMAP INSTRUCTIONS THAT ARE FLAGGED FOR EXECUTION IN THIS MODIFIED RESTART.
1     10 CELL BEAM  RESTART WITH ENFORCED DEFORMATION, GRAVITY LOAD         /    95 SUN SOLARIS NASTRAN    / MAY 17, 95 / PAGE    23
      NASTRAN DEMONSTRATION PROBLEM NO. D11-01-1B                                                                                   
0     RIGID FORMAT SWITCH FROM 11 TO 1                                                                                              
0THE FOLLOWING FILES FROM THE OLD PROBLEM TAPE WERE USED TO INITIATE RESTART

    FILE NAME  REEL NO.  FILE NO.

     CSTM      (PURGED)
     MPTX      (PURGED)
     PCOMPS    (PURGED)
     EPTX      (PURGED)
     GM        (PURGED)
     GPL              1         7
     EQEXIN           1         8
     GPDT             1         9
     BGPDT            1        10
     SIL              1        11
     BGPDP            1        16
     ECT              1        19
     EST              1        23
     GPECT            1        25
     KGG              1        45
     KNN              1        45
     GPST             1        47
     XVPS             1       122
0          **NO ERRORS FOUND - EXECUTE NASTRAN PROGRAM**
0*** USER INFORMATION MESSAGE 238, TURN DIAG 38 ON FOR ADDITIONAL ELEMENT PROCESSING INFORMATION

0*** USER INFORMATION MESSAGE 3113,
     EMG MODULE PROCESSING DOUBLE PRECISION BAR      ELEMENTS (ELEMENT TYPE  34) STARTING WITH ID        3
0*** USER INFORMATION MESSAGE 3113,
     EMG MODULE PROCESSING DOUBLE PRECISION CONM2    ELEMENTS (ELEMENT TYPE  30) STARTING WITH ID       11
0*** USER WARNING MESSAGE 3041
0EXTERNAL GRID POINT        0 DOES NOT EXIST OR IS NOT A GEOMETRIC GRID POINT.
     THE BASIC ORIGIN WILL BE USED.
1     10 CELL BEAM  RESTART WITH ENFORCED DEFORMATION, GRAVITY LOAD         /    95 SUN SOLARIS NASTRAN    / MAY 17, 95 / PAGE    24
      NASTRAN DEMONSTRATION PROBLEM NO. D11-01-1B                                                                                   
0     RIGID FORMAT SWITCH FROM 11 TO 1                                                                                              
 
 
                           O U T P U T   F R O M   G R I D   P O I N T   W E I G H T   G E N E R A T O R
0                                                     REFERENCE POINT =        0
 
 
                                     MO - RIGID BODY MASS MATRIX IN BASIC COORDINATE SYSTEM
                ***                                                                                             ***
                *  1.06920804D-01  0.00000000D+00  0.00000000D+00  0.00000000D+00  0.00000000D+00  0.00000000D+00 *
                *  0.00000000D+00  1.06920804D-01  0.00000000D+00  0.00000000D+00  0.00000000D+00  1.06920806D+00 *
                *  0.00000000D+00  0.00000000D+00  1.06920804D-01  0.00000000D+00 -1.06920806D+00  0.00000000D+00 *
                *  0.00000000D+00  0.00000000D+00  0.00000000D+00  0.00000000D+00  0.00000000D+00  0.00000000D+00 *
                *  0.00000000D+00  0.00000000D+00 -1.06920806D+00  0.00000000D+00  1.43273880D+01  0.00000000D+00 *
                *  0.00000000D+00  1.06920806D+00  0.00000000D+00  0.00000000D+00  0.00000000D+00  1.43273880D+01 *
                ***                                                                                             ***
                                        S - TRANSFORMATION MATRIX FOR SCALAR MASS PARTITION
                                        ***                                             ***
                                        *  1.00000000D+00  0.00000000D+00  0.00000000D+00 *
                                        *  0.00000000D+00  1.00000000D+00  0.00000000D+00 *
                                        *  0.00000000D+00  0.00000000D+00  1.00000000D+00 *
                                        ***                                             ***
                         DIRECTION
                    MASS AXIS SYSTEM (S)       MASS                 X-C.G.           Y-C.G.           Z-C.G.
                            X            1.069208042D-01      0.000000000D+00  0.000000000D+00  0.000000000D+00
                            Y            1.069208042D-01      1.000000016D+01  0.000000000D+00  0.000000000D+00
                            Z            1.069208042D-01      1.000000016D+01  0.000000000D+00  0.000000000D+00

                                                 I(S) - INERTIAS RELATIVE TO C.G. 
                                      ***                                                 ***
                                      *  0.000000000D+00  0.000000000D+00  0.000000000D+00  *
                                      *  0.000000000D+00  3.635307274D+00  0.000000000D+00  *
                                      *  0.000000000D+00  0.000000000D+00  3.635307274D+00  *
                                      ***                                                 ***
                                                      I(Q) - PRINCIPAL INERTIAS
                                      ***                                                 ***
                                      *  0.000000000D+00                                    *
                                      *                   3.635307274D+00                   *
                                      *                                    3.635307274D+00  *
                                      ***                                                 ***
                                            Q - TRANSFORMATION MATRIX - I(Q) = QT*I(S)*Q
                                      ***                                                 ***
                                      *  1.000000000D+00  0.000000000D+00  0.000000000D+00  *
                                      *  0.000000000D+00  1.000000000D+00  0.000000000D+00  *
                                      *  0.000000000D+00  0.000000000D+00  1.000000000D+00  *
                                      ***                                                 ***
1     10 CELL BEAM  RESTART WITH ENFORCED DEFORMATION, GRAVITY LOAD         /    95 SUN SOLARIS NASTRAN    / MAY 17, 95 / PAGE    25
      NASTRAN DEMONSTRATION PROBLEM NO. D11-01-1B                                                                                   

      RIGID FORMAT SWITCH FROM 11 TO 1                                                                                              




0*** USER INFORMATION MESSAGE 3035
     FOR SUBCASE NUMBER     1, EPSILON SUB E =  -9.4723509E-17
0*** SYSTEM WARNING MESSAGE 2184,  STRESS OR FORCE REQUEST FOR ELEMENT CONM2    (NASTRAN ELEM. TYPE =  30)
     WILL NOT BE HONORED AS THIS ELEMENT IS NOT A STRUCTURAL ELEMENT.
1     10 CELL BEAM  RESTART WITH ENFORCED DEFORMATION, GRAVITY LOAD         /    95 SUN SOLARIS NASTRAN    / MAY 17, 95 / PAGE    26
      NASTRAN DEMONSTRATION PROBLEM NO. D11-01-1B                                                                                   
0     RIGID FORMAT SWITCH FROM 11 TO 1                                                                                              
 
                                             D I S P L A C E M E N T   V E C T O R
 
      POINT ID.   TYPE          T1             T2             T3             R1             R2             R3
             1      G      0.0            0.0            0.0            0.0           -6.580981E-05   0.0                           
             2      G     -8.769585E-03   0.0            1.292265E-04   0.0           -6.222019E-05   0.0                           
             3      G     -1.753917E-02   0.0            2.446264E-04   0.0           -5.224900E-05   0.0                           
             4      G     -2.647740E-02   0.0            3.350318E-04   0.0           -3.749165E-05   0.0                           
             5      G     -3.541563E-02   0.0            3.924658E-04   0.0           -1.954352E-05   0.0                           
             6      G     -4.435386E-02   0.0            4.121423E-04   0.0            2.779750E-13   0.0                           
             7      G     -5.329209E-02   0.0            3.924658E-04   0.0            1.954352E-05   0.0                           
             8      G     -6.223032E-02   0.0            3.350318E-04   0.0            3.749165E-05   0.0                           
             9      G     -7.116855E-02   0.0            2.446264E-04   0.0            5.224900E-05   0.0                           
            10      G     -8.010677E-02   0.0            1.292265E-04   0.0            6.222018E-05   0.0                           
            11      G      0.0            0.0            0.0            0.0            6.580981E-05   0.0                           
1     10 CELL BEAM  RESTART WITH ENFORCED DEFORMATION, GRAVITY LOAD         /    95 SUN SOLARIS NASTRAN    / MAY 17, 95 / PAGE    27
      NASTRAN DEMONSTRATION PROBLEM NO. D11-01-1B                                                                                   
0     RIGID FORMAT SWITCH FROM 11 TO 1                                                                                              
 
                                                     L O A D   V E C T O R
 
      POINT ID.   TYPE          T1             T2             T3             R1             R2             R3
             1      G      0.0            0.0            1.721425E-01   0.0            0.0            0.0                           
             2      G      0.0            0.0            3.442850E-01   0.0            0.0            0.0                           
             3      G      0.0            0.0            3.442850E-01   0.0            0.0            0.0                           
             4      G      0.0            0.0            3.442850E-01   0.0            0.0            0.0                           
             5      G      0.0            0.0            3.442850E-01   0.0            0.0            0.0                           
             6      G      0.0            0.0            3.442850E-01   0.0            0.0            0.0                           
             7      G      0.0            0.0            3.442850E-01   0.0            0.0            0.0                           
             8      G      0.0            0.0            3.442850E-01   0.0            0.0            0.0                           
             9      G      0.0            0.0            3.442850E-01   0.0            0.0            0.0                           
            10      G     -9.811330E+06   0.0            3.442850E-01   0.0            0.0            0.0                           
            11      G      9.811330E+06   0.0            1.721425E-01   0.0            0.0            0.0                           
1     10 CELL BEAM  RESTART WITH ENFORCED DEFORMATION, GRAVITY LOAD         /    95 SUN SOLARIS NASTRAN    / MAY 17, 95 / PAGE    28
      NASTRAN DEMONSTRATION PROBLEM NO. D11-01-1B                                                                                   
0     RIGID FORMAT SWITCH FROM 11 TO 1                                                                                              
 
                                 F O R C E S   I N   B A R   E L E M E N T S         ( C B A R )
0    ELEMENT         BEND-MOMENT END-A            BEND-MOMENT END-B                - SHEAR -               AXIAL
       ID.         PLANE 1       PLANE 2        PLANE 1       PLANE 2        PLANE 1       PLANE 2         FORCE         TORQUE
            3    -5.508545E+00  0.0           -7.229980E+00  0.0            8.607178E-01  0.0           -9.848494E+05   0.0         
            4    -7.229950E+00  0.0           -8.262787E+00  0.0            5.164185E-01  0.0           -9.848492E+05   0.0         
            5    -8.262878E+00  0.0           -8.607117E+00  0.0            1.721191E-01  0.0           -9.848495E+05   0.0         
            6    -8.607117E+00  0.0           -8.262878E+00  0.0           -1.721191E-01  0.0           -9.848495E+05   0.0         
            7    -8.262848E+00  0.0           -7.230011E+00  0.0           -5.164185E-01  0.0           -9.848490E+05   0.0         
            8    -7.229980E+00  0.0           -5.508545E+00  0.0           -8.607178E-01  0.0           -9.848500E+05   0.0         
            9    -5.508560E+00  0.0           -3.098557E+00  0.0           -1.205002E+00  0.0           -9.848485E+05   0.0         
           10    -3.098564E+00  0.0           -7.629395E-06  0.0           -1.549278E+00  0.0           -9.848500E+05   0.0         




                                        * * * END OF JOB * * *
1
 JOB TITLE =  10 CELL BEAM  RESTART WITH ENFORCED DEFORMATION, GRAVITY LOAD      
 DATE:  5/17/95
 END TIME: 16:16:26
 TOTAL WALL CLOCK TIME      3 SEC.
 
