





                                  ****
                                *      *
                               *        *
                               *  N A S T R A N
                               *        *
                                *      *
                                  ****


                             SUN COMPUTER SYSTEMS    
                                SOLARIS VERSION

                          SYSTEM RELEASE -  1995 ED.

                                DISTRIBUTED BY

         COMPUTER SOFTWARE MANAGEMENT AND INFORMATION CENTER (COSMIC)
                 UNIVERSITY OF GEORGIA, ATHENS, GEORGIA 30602
                 PHONE: (706)542-3265      FAX: (706)542-4807
1                                                                           /    95 SUN SOLARIS NASTRAN    / MAY 17, 95 / PAGE     2
                                                                                                                                    
0                                                                                                                                   
                                                                                                         
                                                                                                         
                         INSTALLATION CENTER USER INFORMATION GIVEN IN THIS SECTION                      
                                                                                                         
                                     *********************************************                       
                                     *                                           *                       
                                     *  PLEASE READ THE COMMENT IN DEMO PROBLEM  *                       
                                     *  D01002A ABOUT SYSTEM TIMING CONSTANTS    *                       
                                     *                                           *                       
                                     *********************************************                       
                                                                                                         
                         ===X=    TOP OF PAGE REQUEST IF 'X' IS REPLACED BY '='                          
                                                                                                         
1                                                                           /    95 SUN SOLARIS NASTRAN    / MAY 17, 95 / PAGE     3
                                                                                                                                    
0                                                                                                                                   
0*** USER INFORMATION MESSAGE 225, GINO TIME CONSTANTS ARE BEING COMPUTED
     (SEE NASINFO FILE FOR ELIMINATION OF THESE COMPUTATIONS)
1                                                                           /    95 SUN SOLARIS NASTRAN    / MAY 17, 95 / PAGE     4
                                                                                                                                    
0        N A S T R A N    E X E C U T I V E    C O N T R O L    D E C K    E C H O                                                  
0                                                                                                                                   
                                                                                                                                    
                                                                                                                                    
     ID    D11031A,NASTRAN                                                           
     APP   AERO                                                                      
     SOL   11,0                                                                      
     TIME  25                                                                        
     CEND                                                                            


0*** USER INFORMATION MESSAGE, TURN DIAG 48 ON FOR NASTRAN RELEASE NEWS, DIAG DEFINITION, NEW DMAP
         MODULES AND NEW BULKDATA CARDS INFORMATION
1     JET TRANSPORT WING DYNAMIC ANALYSIS                                   /    95 SUN SOLARIS NASTRAN    / MAY 17, 95 / PAGE     5
      NASTRAN DEMONSTRATION PROBLEM NO. D11-03-1A                                                                                   
0     SYMMETRIC RESPONSE , STIFF AILERON                                                                                            
0                                        C A S E    C O N T R O L   D E C K   E C H O                                               
                 CARD                                                                                                               
                 COUNT                                                                                                              
                  1      TITLE    = JET TRANSPORT WING DYNAMIC ANALYSIS                                  
                  2      SUBTITLE = NASTRAN DEMONSTRATION PROBLEM NO. D11-03-1A                          
                  3      LABEL    = SYMMETRIC RESPONSE , STIFF AILERON                                   
                  4        ECHO   = BOTH                                                                 
                  5      $                                                                               
                  6      $       MODEL DESCRIPTION           JET TRANSPORT WING EXAMPLE                  
                  7      $                               SYMMETRIC RESPONSE TO A RANDOM                  
                  8      $                               GUST WITH A STIFF AILERON                       
                  9      $                                                                               
                 10        SPC    = 14   $  SYM , NO PITCH                                               
                 11        MPC    = 1                                                                    
                 12        METHOD = 10   $  GIVENS                                                       
                 13        SDAMP  = 2000                                                                 
                 14        FREQ   = 40                                                                   
                 15        RANDOM = 1031 $  EMPIRICAL PSDF                                               
                 16      OUTPUT                                                                          
                 17      $                                                                               
                 18      $       SOLUTION                   RANDOM ANALYSIS USING                        
                 19      $                               DOUBLET-LATTICE METHOD AERODYNAMICS             
                 20      $                               AT MACH NO. OF .62                              
                 21      $                                                                               
                 22        SET 1 = 1  , 2 , 12 $                                                         
                 23        SET 2 = 1 , 9 THRU 12 , 1040                                                  
                 24        SET 3 = 11                                                                    
                 25        SET 4 = 1001 , 1022 , 1023 , 1040 , 1041 $                                    
                 26        SDISP(IMAG) = 1                                                               
                 27        DISP(IMAG)  = 2                                                               
                 28        SPCF(IMAG)  = 3                                                               
                 29        AEROF = 4                                                                     
                 30      SUBCASE 1                                                                       
                 31        LABEL =  RANDOM GUST ANALYSIS                                                 
                 32        GUST  = 3002                                                                  
                 33      $                                                                               
                 34      $           PRODUCES XY PAPER PLOTS OF MODAL AND GRID POINT DISPLACEMENT        
                 35      $       AND WING ROOT BENDING MOMENTS                                           
                 36      $                                                                               
                 37      OUTPUT(XYOUT)    $ FREQ RESP PACKAGE (COMPLEX NUMBERS)                          
                 38        CURVELINESYMBOL = 1                                                           
                 39        XTITLE  =  FREQUENCY(HERTZ)      JET TRANSPORT , FREQUENCY RESPONSE           
                 40        YTITLE  = MODAL DEFLECTION                                                    
                 41        TCURVE  =     FIRST MODE (PLUNGE)                                             
                 42        XYPAPERPLOT   SDISP /   1(T1RM) , 1(T1IP)                                     
                 43        TCURVE  =     SECOND MODE (WING BENDING)                                      
                 44        XYPAPERPLOT   SDISP /   2(T1RM) , 2(T1IP)                                     
                 45        TCURVE  =     TWELFTH MODE  (AILERON)                                         
                 46        XYPAPERPLOT   SDISP /  12(T1RM) , 12(T1IP)                                    
                 47        YTITLE  = PHYSICAL DEFLECTION                                                 
1     JET TRANSPORT WING DYNAMIC ANALYSIS                                   /    95 SUN SOLARIS NASTRAN    / MAY 17, 95 / PAGE     6
      NASTRAN DEMONSTRATION PROBLEM NO. D11-03-1A                                                                                   
0     SYMMETRIC RESPONSE , STIFF AILERON                                                                                            
0                                        C A S E    C O N T R O L   D E C K   E C H O                                               
                 CARD                                                                                                               
                 COUNT                                                                                                              
                 48        TCURVE  =     WING ( 3/4 CHORD , 1/4 CHORD , STA 458 )                        
                 49        XYPAPERPLOT    DISP /   9(T3RM) ,  9(T3IP) , 10(T3RM) , 10(T3IP)              
                 50        TCURVE  =     FUSELAGE PLUNGE                                                 
                 51        XYPAPERPLOT    DISP /  11(T3RM) , 11(T3IP)                                    
                 52        TCURVE  =     AILERON DEFLECTION                                              
                 53        XYPAPERPLOT    DISP /  12(R2RM) , 12(R2IP)                                    
                 54        TCURVE  =     AERODYNAMIC BOX NEAR TIP , PITCH                                
                 55        XYPAPERPLOT    DISP /  1040(R2RM) , 1040(R2IP)                                
                 56        TCURVE  =     WING ROOT BENDING MOMENT                                        
                 57        YTITLE  = ROTATIONAL CONSTRAINTS                                              
                 58        XYPAPERPLOT    SPCF /  11(R3RM) , 11(R3IP)                                    
                 59      $ RANDOM ANALYSIS OUTPUT REQUESTS                                               
                 60        XTITLE  = FREQUENCY (HERTZ)      JET TRANSPORT , RANDOM ANALYSIS              
                 61        TCURVE  =   POWER SPECTRAL DENSITY FUNCTION                                   
                 62        YTITLE  = FUSELAGE PLUNGE  (11T3)         , PSDF , GUST LOAD                  
                 63        XYPAPERPLOT  DISP  PSDF     /  11(T3)                                         
                 64        YTITLE  = WING TIP DISPLACEMENT (9T3)     , PSDF , GUST LOAD                  
                 65        XYPAPERPLOT  DISP  PSDF     /   9(T3)                                         
                 66        YTITLE  = WING ROOT BENDING MOMENT (11R3) , PSDF , GUST LOAD                  
                 67        XYPAPERPLOT  SPCF  PSDF     /  11(R3)                                         
                 68      BEGIN BULK                                                                      
1     JET TRANSPORT WING DYNAMIC ANALYSIS                                   /    95 SUN SOLARIS NASTRAN    / MAY 17, 95 / PAGE     7
      NASTRAN DEMONSTRATION PROBLEM NO. D11-03-1A                                                                                   
0     SYMMETRIC RESPONSE , STIFF AILERON                                                                                            
0                                             I N P U T   B U L K   D A T A   D E C K   E C H O                                     
                                                                                                                                    
                                  ---1--- +++2+++ ---3--- +++4+++ ---5--- +++6+++ ---7--- +++8+++ ---9--- +++10+++                  
                              AEFACT  1       0.0     .09     .21     .33     .45     .56     .66     +AE1                  
                              +AE1    .74                                                                                   
                              AEFACT  2       .74     .82     .90     .974                                                  
                              AEFACT  3       .974    1.00                                                                  
                              AEFACT  4       0.0     .375    .750    1.00                                                  
                              AEFACT  5       0.0     .1875   .375    .625    .750    .875    1.00                          
                              AERO    1       8360.   131.232 1.1468-71                               SYM                   
                              CAERO1  1001    1000    0                       1       4       1       +CA01                 
                              +CA01   78.75   0.0     0.0     225.    35.     500.    0.0     100.                          
                              CAERO1  1022    1000    0                       2       5       1       +CA22                 
                              +CA22   78.75   0.0     0.0     225.    35.     500.    0.0     100.                          
                              CAERO1  1040    1000    0                       3       4       1       +CA40                 
                              +CA40   78.75   0.0     0.0     225.    35.     500.    0.0     100.                          
                              CELAS2  3       5142671.12      5                                                             
                              CMASS2  2       13967.2 12      5                                                             
                              CMASS2  121     5248.7  1       3                                                             
                              CMASS2  122     134.9   1       3       2       3                                             
                              CMASS2  123     790.3   2       3                                                             
                              CMASS2  341     9727.   3       3                                                             
                              CMASS2  342     11005.  3       3       4       3                                             
                              CMASS2  343     473.    4       3                                                             
                              CMASS2  561     3253.6  5       3                                                             
                              CMASS2  562     -139.7  5       3       6       3                                             
                              CMASS2  563     946.3   6       3                                                             
                              CMASS2  781     2617.8  7       3                                                             
                              CMASS2  782     21.     7       3       8       3                                             
                              CMASS2  783     782.3   8       3                                                             
                              CMASS2  9101    494.8   9       3                                                             
                              CMASS2  9102    -7.3    9       3       10      3                                             
                              CMASS2  9103    185.2   10      3                                                             
                              CONM1   1       11                                                      +51                   
                              +51     17400.                          4.37+7                          +52                   
                              +52             4.35+09                                                                       
                              CORD2R  1               0.0     0.0     0.0     0.0     0.0     -1.     +C1                   
                              +C1     -1.     0.0     0.0                                                                   
                              DAREA   9999    11      1       1.                                      DUMMY                 
                              EIGR    10      GIV     0.0     1.              12                      +EIGR                 
                              +EIGR   MAX                                                                                   
                              FREQ1   40      0.0     .25     39                                                            
                              GENEL   432             1       3       2       3       3       3       +01                   
                              +01     4       3       5       3       6       3       7       3       +02                   
                              +02     8       3       9       3       10      3                       +03                   
                              +03     UD              11      3       11      4       11      5       +03A                  
                              +03A    11      6                                                       +04                   
                              +04     Z       8.7172-61.3361-61.2778-56.2720-61.6251-51.0492-52.0478-5+05                   
                              +05     1.5630-52.4285-52.0403-53.0861-56.2720-63.2297-51.0492-53.3529-5+06                   
                              +06     1.5630-53.5021-52.0257-53.5785-52.7732-51.5726-54.8255-53.7628-5+07                   
1     JET TRANSPORT WING DYNAMIC ANALYSIS                                   /    95 SUN SOLARIS NASTRAN    / MAY 17, 95 / PAGE     8
      NASTRAN DEMONSTRATION PROBLEM NO. D11-03-1A                                                                                   

      SYMMETRIC RESPONSE , STIFF AILERON                                                                                            

                                              I N P U T   B U L K   D A T A   D E C K   E C H O                                     
                                                                                                                                    
                                  ---1--- +++2+++ ---3--- +++4+++ ---5--- +++6+++ ---7--- +++8+++ ---9--- +++10+++                  
                              +07     7.3284-56.4338-59.5810-58.8378-56.3749-53.7628-58.0136-56.4338-5+08                   
                              +08     1.0012-48.8378-51.1811-41.2758-41.1344-41.9350-41.8160-42.5283-4+09                   
                              +09     2.4294-41.6999-41.8160-42.2920-42.4294-42.8249-43.6862-43.5052-4+10                   
                              +10     5.2675-45.1171-44.2292-45.1171-45.7187-48.4840-48.2340-49.2340-4+11                   
                              +11     S       1.0     90.0    -20.25  45.0    1.0     90.0    81.0    +12                   
                              +12     45.0    1.0     186.0   -17.85  141.0   1.0     186.0   71.4    +13                   
                              +13     141.0   1.0     268.0   -15.80  223.0   1.0     268.0   63.2    +14                   
                              +14     223.0   1.0     368.0   -13.30  323.0   1.0     368.0   53.2    +15                   
                              +15     323.0   1.0     458.0   -11.05  413.0   1.0     458.0   44.2    +16                   
                              +16     413.0                                                                                 
                              GRID    1               20.25   90.                     12456                                 
                              GRID    2               -81.    90.                     12456                                 
                              GRID    3               17.85   186.                    12456                                 
                              GRID    4               -71.4   186.                    12456                                 
                              GRID    5               15.8    268.                    12456                                 
                              GRID    6               -63.2   268.                    12456                                 
                              GRID    7               13.3    368.                    12456                                 
                              GRID    8               -53.2   368.                    12456                                 
                              GRID    9               11.05   458.                    12456                                 
                              GRID    10              -44.2   458.                    12456                                 
                              GRID    11              .0      .0                      126                                   
                              GRID    12              -86.45  368.                    1246                                  
                              GUST    3002    3002    1.1962-40.0     8360.                                                 
                              MKAERO1 .62                                                             +MK                   
                              +MK     .02     .10     .50                                                                   
                              MPC     1       12      3       -1.0    8       3       1.5             +MPC1                 
                              +MPC1           7       3       -0.5    12      5       33.25                                 
                              PAERO1  1000                                                                                  
                              PARAM   GUSTAERO1                                                                             
                              PARAM   LMODES  12                                                                            
                              PARAM   MACH    .62                                                                           
                              PARAM   Q       4.00747                                                                       
                              PARAM   WTMASS  .0025907                                                                      
                              RANDPS  1031    1       1       1.              1032                                          
                              RLOAD1  3002    9999                    1004                                                  
                              SET1    14      1       THRU    11                                                            
                              SET1    15      8       10      12                                                            
                              SPC     14      11      45                                                                    
                              SPLINE1 104     1022    1026    1039    15                                                    
                              SPLINE2 101     1001    1001    1021    14      0.0     2.      0       +SP1                  
                              +SP1    -1.0    -1.0                                                                          
                              SPLINE2 102     1022    1022    1037    14      0.0     2.      0       +SP2                  
                              +SP2    -1.0    -1.0                                                                          
                              SPLINE2 103     1040    1040    1042    14      0.0     2.      0       +SP3                  
                              +SP3    -1.0    -1.0                                                                          
                              SUPORT  11      3                                                                             
                              TABDMP1 2000                                                            +T2000                
1     JET TRANSPORT WING DYNAMIC ANALYSIS                                   /    95 SUN SOLARIS NASTRAN    / MAY 17, 95 / PAGE     9
      NASTRAN DEMONSTRATION PROBLEM NO. D11-03-1A                                                                                   

      SYMMETRIC RESPONSE , STIFF AILERON                                                                                            

                                              I N P U T   B U L K   D A T A   D E C K   E C H O                                     
                                                                                                                                    
                                  ---1--- +++2+++ ---3--- +++4+++ ---5--- +++6+++ ---7--- +++8+++ ---9--- +++10+++                  
                              +T2000  0.0     .06     10.     .06     ENDT                                                  
                              TABLED1 1004                                                             T1004                
                              +T1004  0.0     0.0     .01     1.      10.     1.      ENDT                                  
                              TABRND1 1032                                                            +001                  
                              +001    .00     2.8708+0.25     1.2641+0.50     4.7188-1.75     2.3080-1+002                  
                              +002    1.00    1.3456-11.25    8.7595-21.50    6.1402-21.75    4.5369-2+003                  
                              +003    2.00    3.4865-22.25    2.7618-22.50    2.2412-22.75    1.8547-2+004                  
                              +004    3.00    1.5601-23.25    1.3304-23.50    1.1478-23.75    1.0004-2+005                  
                              +005    4.00    8.7964-34.25    7.7947-34.50    6.9547-34.75    6.2434-3+006                  
                              +006    5.00    5.6359-35.25    5.1128-35.50    4.6593-35.75    4.2636-3+007                  
                              +007    6.00    3.9162-36.25    3.6095-36.50    3.3375-36.75    3.0951-3+008                  
                              +008    7.00    2.8782-37.25    2.6833-37.50    2.5076-37.75    2.3485-3+009                  
                              +009    8.00    2.2042-38.25    2.0727-38.50    1.9526-38.75    1.8427-3+010                  
                              +010    9.00    1.7418-39.25    1.6490-39.50    1.5634-39.75    1.4843-3+011                  
                              +011    ENDT                                                                                  
                              TSTEP   41      40      .1      1                                                             
                              ENDDATA                                                                                       


                        TOTAL COUNT=    110
0*** USER INFORMATION MESSAGE 207, BULK DATA DECK IS NOT SORTED. NASTRAN WILL RE-ORDER THE INPUT DECK.
1     JET TRANSPORT WING DYNAMIC ANALYSIS                                   /    95 SUN SOLARIS NASTRAN    / MAY 17, 95 / PAGE    10
      NASTRAN DEMONSTRATION PROBLEM NO. D11-03-1A                                                                                   
0     SYMMETRIC RESPONSE , STIFF AILERON                                                                                            
0                                                 S O R T E D   B U L K    D A T A    E C H O                                       
                     CARD                                                                                                           
                     COUNT        ---1--- +++2+++ ---3--- +++4+++ ---5--- +++6+++ ---7--- +++8+++ ---9--- +++10+++                  
                    1-        AEFACT  1       0.0     .09     .21     .33     .45     .56     .66     +AE1    
                    2-        +AE1    .74                                                                     
                    3-        AEFACT  2       .74     .82     .90     .974                                    
                    4-        AEFACT  3       .974    1.00                                                    
                    5-        AEFACT  4       0.0     .375    .750    1.00                                    
                    6-        AEFACT  5       0.0     .1875   .375    .625    .750    .875    1.00            
                    7-        AERO    1       8360.   131.232 1.1468-71                               SYM     
                    8-        CAERO1  1001    1000    0                       1       4       1       +CA01   
                    9-        +CA01   78.75   0.0     0.0     225.    35.     500.    0.0     100.            
                   10-        CAERO1  1022    1000    0                       2       5       1       +CA22   
                   11-        +CA22   78.75   0.0     0.0     225.    35.     500.    0.0     100.            
                   12-        CAERO1  1040    1000    0                       3       4       1       +CA40   
                   13-        +CA40   78.75   0.0     0.0     225.    35.     500.    0.0     100.            
                   14-        CELAS2  3       5142671.12      5                                               
                   15-        CMASS2  2       13967.2 12      5                                               
                   16-        CMASS2  121     5248.7  1       3                                               
                   17-        CMASS2  122     134.9   1       3       2       3                               
                   18-        CMASS2  123     790.3   2       3                                               
                   19-        CMASS2  341     9727.   3       3                                               
                   20-        CMASS2  342     11005.  3       3       4       3                               
                   21-        CMASS2  343     473.    4       3                                               
                   22-        CMASS2  561     3253.6  5       3                                               
                   23-        CMASS2  562     -139.7  5       3       6       3                               
                   24-        CMASS2  563     946.3   6       3                                               
                   25-        CMASS2  781     2617.8  7       3                                               
                   26-        CMASS2  782     21.     7       3       8       3                               
                   27-        CMASS2  783     782.3   8       3                                               
                   28-        CMASS2  9101    494.8   9       3                                               
                   29-        CMASS2  9102    -7.3    9       3       10      3                               
                   30-        CMASS2  9103    185.2   10      3                                               
                   31-        CONM1   1       11                                                      +51     
                   32-        +51     17400.                          4.37+7                          +52     
                   33-        +52             4.35+09                                                         
                   34-        CORD2R  1               0.0     0.0     0.0     0.0     0.0     -1.     +C1     
                   35-        +C1     -1.     0.0     0.0                                                     
                   36-        DAREA   9999    11      1       1.                                      DUMMY   
                   37-        EIGR    10      GIV     0.0     1.              12                      +EIGR   
                   38-        +EIGR   MAX                                                                     
                   39-        FREQ1   40      0.0     .25     39                                              
                   40-        GENEL   432             1       3       2       3       3       3       +01     
                   41-        +01     4       3       5       3       6       3       7       3       +02     
                   42-        +02     8       3       9       3       10      3                       +03     
                   43-        +03     UD              11      3       11      4       11      5       +03A    
                   44-        +03A    11      6                                                       +04     
                   45-        +04     Z       8.7172-61.3361-61.2778-56.2720-61.6251-51.0492-52.0478-5+05     
                   46-        +05     1.5630-52.4285-52.0403-53.0861-56.2720-63.2297-51.0492-53.3529-5+06     
                   47-        +06     1.5630-53.5021-52.0257-53.5785-52.7732-51.5726-54.8255-53.7628-5+07     
1     JET TRANSPORT WING DYNAMIC ANALYSIS                                   /    95 SUN SOLARIS NASTRAN    / MAY 17, 95 / PAGE    11
      NASTRAN DEMONSTRATION PROBLEM NO. D11-03-1A                                                                                   

      SYMMETRIC RESPONSE , STIFF AILERON                                                                                            

                                                  S O R T E D   B U L K    D A T A    E C H O                                       
                     CARD                                                                                                           
                     COUNT        ---1--- +++2+++ ---3--- +++4+++ ---5--- +++6+++ ---7--- +++8+++ ---9--- +++10+++                  
                   48-        +07     7.3284-56.4338-59.5810-58.8378-56.3749-53.7628-58.0136-56.4338-5+08     
                   49-        +08     1.0012-48.8378-51.1811-41.2758-41.1344-41.9350-41.8160-42.5283-4+09     
                   50-        +09     2.4294-41.6999-41.8160-42.2920-42.4294-42.8249-43.6862-43.5052-4+10     
                   51-        +10     5.2675-45.1171-44.2292-45.1171-45.7187-48.4840-48.2340-49.2340-4+11     
                   52-        +11     S       1.0     90.0    -20.25  45.0    1.0     90.0    81.0    +12     
                   53-        +12     45.0    1.0     186.0   -17.85  141.0   1.0     186.0   71.4    +13     
                   54-        +13     141.0   1.0     268.0   -15.80  223.0   1.0     268.0   63.2    +14     
                   55-        +14     223.0   1.0     368.0   -13.30  323.0   1.0     368.0   53.2    +15     
                   56-        +15     323.0   1.0     458.0   -11.05  413.0   1.0     458.0   44.2    +16     
                   57-        +16     413.0                                                                   
                   58-        GRID    1               20.25   90.                     12456                   
                   59-        GRID    2               -81.    90.                     12456                   
                   60-        GRID    3               17.85   186.                    12456                   
                   61-        GRID    4               -71.4   186.                    12456                   
                   62-        GRID    5               15.8    268.                    12456                   
                   63-        GRID    6               -63.2   268.                    12456                   
                   64-        GRID    7               13.3    368.                    12456                   
                   65-        GRID    8               -53.2   368.                    12456                   
                   66-        GRID    9               11.05   458.                    12456                   
                   67-        GRID    10              -44.2   458.                    12456                   
                   68-        GRID    11              .0      .0                      126                     
                   69-        GRID    12              -86.45  368.                    1246                    
                   70-        GUST    3002    3002    1.1962-40.0     8360.                                   
                   71-        MKAERO1 .62                                                             +MK     
                   72-        +MK     .02     .10     .50                                                     
                   73-        MPC     1       12      3       -1.0    8       3       1.5             +MPC1   
                   74-        +MPC1           7       3       -0.5    12      5       33.25                   
                   75-        PAERO1  1000                                                                    
                   76-        PARAM   GUSTAERO1                                                               
                   77-        PARAM   LMODES  12                                                              
                   78-        PARAM   MACH    .62                                                             
                   79-        PARAM   Q       4.00747                                                         
                   80-        PARAM   WTMASS  .0025907                                                        
                   81-        RANDPS  1031    1       1       1.              1032                            
                   82-        RLOAD1  3002    9999                    1004                                    
                   83-        SET1    14      1       THRU    11                                              
                   84-        SET1    15      8       10      12                                              
                   85-        SPC     14      11      45                                                      
                   86-        SPLINE1 104     1022    1026    1039    15                                      
                   87-        SPLINE2 101     1001    1001    1021    14      0.0     2.      0       +SP1    
                   88-        +SP1    -1.0    -1.0                                                            
                   89-        SPLINE2 102     1022    1022    1037    14      0.0     2.      0       +SP2    
                   90-        +SP2    -1.0    -1.0                                                            
                   91-        SPLINE2 103     1040    1040    1042    14      0.0     2.      0       +SP3    
                   92-        +SP3    -1.0    -1.0                                                            
                   93-        SUPORT  11      3                                                               
                   94-        TABDMP1 2000                                                            +T2000  
1     JET TRANSPORT WING DYNAMIC ANALYSIS                                   /    95 SUN SOLARIS NASTRAN    / MAY 17, 95 / PAGE    12
      NASTRAN DEMONSTRATION PROBLEM NO. D11-03-1A                                                                                   

      SYMMETRIC RESPONSE , STIFF AILERON                                                                                            

                                                  S O R T E D   B U L K    D A T A    E C H O                                       
                     CARD                                                                                                           
                     COUNT        ---1--- +++2+++ ---3--- +++4+++ ---5--- +++6+++ ---7--- +++8+++ ---9--- +++10+++                  
                   95-        +T2000  0.0     .06     10.     .06     ENDT                                    
                   96-        TABLED1 1004                                                             T1004  
                   97-        +T1004  0.0     0.0     .01     1.      10.     1.      ENDT                    
                   98-        TABRND1 1032                                                            +001    
                   99-        +001    .00     2.8708+0.25     1.2641+0.50     4.7188-1.75     2.3080-1+002    
                  100-        +002    1.00    1.3456-11.25    8.7595-21.50    6.1402-21.75    4.5369-2+003    
                  101-        +003    2.00    3.4865-22.25    2.7618-22.50    2.2412-22.75    1.8547-2+004    
                  102-        +004    3.00    1.5601-23.25    1.3304-23.50    1.1478-23.75    1.0004-2+005    
                  103-        +005    4.00    8.7964-34.25    7.7947-34.50    6.9547-34.75    6.2434-3+006    
                  104-        +006    5.00    5.6359-35.25    5.1128-35.50    4.6593-35.75    4.2636-3+007    
                  105-        +007    6.00    3.9162-36.25    3.6095-36.50    3.3375-36.75    3.0951-3+008    
                  106-        +008    7.00    2.8782-37.25    2.6833-37.50    2.5076-37.75    2.3485-3+009    
                  107-        +009    8.00    2.2042-38.25    2.0727-38.50    1.9526-38.75    1.8427-3+010    
                  108-        +010    9.00    1.7418-39.25    1.6490-39.50    1.5634-39.75    1.4843-3+011    
                  109-        +011    ENDT                                                                    
                  110-        TSTEP   41      40      .1      1                                               
                              ENDDATA
0*** USER INFORMATION MESSAGE -  GRID-POINT RESEQUENCING PROCESSOR BANDIT IS NOT USED DUE TO
     SMALL PROBLEM SIZE
0          **NO ERRORS FOUND - EXECUTE NASTRAN PROGRAM**
0*** USER INFORMATION MESSAGE 238, TURN DIAG 38 ON FOR ADDITIONAL ELEMENT PROCESSING INFORMATION

1     JET TRANSPORT WING DYNAMIC ANALYSIS                                   /    95 SUN SOLARIS NASTRAN    / MAY 17, 95 / PAGE    13
      NASTRAN DEMONSTRATION PROBLEM NO. D11-03-1A                                                                                   

      SYMMETRIC RESPONSE , STIFF AILERON                                                                                            




0*** USER INFORMATION MESSAGE 3113,
     EMG MODULE PROCESSING DOUBLE PRECISION ELAS2    ELEMENTS (ELEMENT TYPE  12) STARTING WITH ID        3
0*** USER INFORMATION MESSAGE 3113,
     EMG MODULE PROCESSING DOUBLE PRECISION MASS2    ELEMENTS (ELEMENT TYPE  26) STARTING WITH ID        2
0*** USER INFORMATION MESSAGE 3113,
     EMG MODULE PROCESSING DOUBLE PRECISION CONM1    ELEMENTS (ELEMENT TYPE  29) STARTING WITH ID        1
0*** USER INFORMATION MESSAGE 3035
     FOR SUBCASE NUMBER     0, EPSILON SUB E =   2.0067149E-16
0*** USER INFORMATION MESSAGE 2016, GIVENS TIME ESTIMATE IS        0 SECONDS.
                                    PROBLEM SIZE IS      12, SPILL WILL OCCUR FOR THIS CORE AT A PROBLEM SIZE OF    1413 .
1     JET TRANSPORT WING DYNAMIC ANALYSIS                                   /    95 SUN SOLARIS NASTRAN    / MAY 17, 95 / PAGE    14
      NASTRAN DEMONSTRATION PROBLEM NO. D11-03-1A                                                                                   
0     SYMMETRIC RESPONSE , STIFF AILERON                                                                                            
 
 
                              E I G E N V A L U E   A N A L Y S I S   S U M M A R Y   (GIVENS METHOD)



                                    NUMBER OF EIGENVALUES EXTRACTED . . . . . . .        12

                                    NUMBER OF EIGENVECTORS COMPUTED . . . . . . .        12

                                    NUMBER OF EIGENVALUE CONVERGENCE FAILURES . .         0

                                    NUMBER OF EIGENVECTOR CONVERGENCE FAILURES. .         0


                                    REASON FOR TERMINATION. . . . . . . . . . . .         1*


                                    LARGEST OFF-DIAGONAL MODAL MASS TERM. . . . .  0.00E+00

                                                                            . . .         0
                                              MODE PAIR. . . . . . . . . . .
                                                                            . . .         0

                                    NUMBER OF OFF-DIAG0NAL MODAL MASS
                                         TERMS FAILING CRITERION. . . . . . . . .         0


                                    (* NORMAL TERMINATION)
1     JET TRANSPORT WING DYNAMIC ANALYSIS                                   /    95 SUN SOLARIS NASTRAN    / MAY 17, 95 / PAGE    15
      NASTRAN DEMONSTRATION PROBLEM NO. D11-03-1A                                                                                   
0     SYMMETRIC RESPONSE , STIFF AILERON                                                                                            
 
                                              R E A L   E I G E N V A L U E S

   MODE    EXTRACTION       EIGENVALUE            RADIAN              CYCLIC           GENERALIZED         GENERALIZED
    NO.       ORDER                              FREQUENCY           FREQUENCY            MASS              STIFFNESS

        1        11        0.0                 0.0                 0.0                 1.085996E+02        0.0                      
        2        10        2.344038E+02        1.531025E+01        2.436702E+00        7.333811E+00        1.719073E+03             
        3         9        5.021460E+02        2.240862E+01        3.566442E+00        4.860579E+01        2.440721E+04             
        4         8        2.873470E+03        5.360476E+01        8.531462E+00        6.036275E+00        1.734505E+04             
        5         7        6.346819E+03        7.966693E+01        1.267939E+01        1.389629E+01        8.819726E+04             
        6         6        8.746056E+03        9.352035E+01        1.488422E+01        3.997501E+00        3.496237E+04             
        7         5        1.766041E+04        1.328925E+02        2.115050E+01        3.884947E+00        6.860977E+04             
        8         4        2.401137E+04        1.549560E+02        2.466202E+01        3.570773E+00        8.573913E+04             
        9         3        4.211877E+04        2.052286E+02        3.266314E+01        3.142323E+00        1.323508E+05             
       10         2        6.020940E+04        2.453760E+02        3.905281E+01        1.016273E+00        6.118916E+04             
       11         1        9.492829E+04        3.081043E+02        4.903633E+01        8.935863E+00        8.482661E+05             
       12        12        1.421223E+05        3.769911E+02        6.000000E+01        3.618483E+01        5.142671E+06             
1     JET TRANSPORT WING DYNAMIC ANALYSIS                                   /    95 SUN SOLARIS NASTRAN    / MAY 17, 95 / PAGE    16
      NASTRAN DEMONSTRATION PROBLEM NO. D11-03-1A                                                                                   

      SYMMETRIC RESPONSE , STIFF AILERON                                                                                            




0*** USER INFORMATION MESSAGE 3028      B =   21     BBAR =    3
                                        C =   22     CBAR =   38
                                        R =   23
0*** USER INFORMATION MESSAGE 3027, UNSYMMETRIC COMPLEX  DECOMPOSITION OF DATA BLOCK SCRATC12 (N =    42)
     TIME ESTIMATE =        0 SECONDS
0*** USER INFORMATION MESSAGE 3028      B =   21     BBAR =    3
                                        C =   22     CBAR =   38
                                        R =   23
0*** USER INFORMATION MESSAGE 3027, UNSYMMETRIC COMPLEX  DECOMPOSITION OF DATA BLOCK SCRATC12 (N =    42)
     TIME ESTIMATE =        0 SECONDS
0*** USER INFORMATION MESSAGE 3028      B =   21     BBAR =    3
                                        C =   22     CBAR =   38
                                        R =   23
0*** USER INFORMATION MESSAGE 3027, UNSYMMETRIC COMPLEX  DECOMPOSITION OF DATA BLOCK SCRATC12 (N =    42)
     TIME ESTIMATE =        0 SECONDS
0*** USER INFORMATION MESSAGE 3028      B =   21     BBAR =    3
                                        C =   22     CBAR =   38
                                        R =   23
0*** USER INFORMATION MESSAGE 3027, UNSYMMETRIC COMPLEX  DECOMPOSITION OF DATA BLOCK SCRATCH5 (N =    42)
     TIME ESTIMATE =        0 SECONDS
0*** USER INFORMATION MESSAGE 3028      B =   21     BBAR =    3
                                        C =   22     CBAR =   38
                                        R =   23
0*** USER INFORMATION MESSAGE 3027, UNSYMMETRIC COMPLEX  DECOMPOSITION OF DATA BLOCK SCRATCH5 (N =    42)
     TIME ESTIMATE =        0 SECONDS
0*** USER INFORMATION MESSAGE 3028      B =   21     BBAR =    3
                                        C =   22     CBAR =   38
                                        R =   23
0*** USER INFORMATION MESSAGE 3027, UNSYMMETRIC COMPLEX  DECOMPOSITION OF DATA BLOCK SCRATCH5 (N =    42)
     TIME ESTIMATE =        0 SECONDS
1     JET TRANSPORT WING DYNAMIC ANALYSIS                                   /    95 SUN SOLARIS NASTRAN    / MAY 17, 95 / PAGE    17
      NASTRAN DEMONSTRATION PROBLEM NO. D11-03-1A                                                                                   
0      RANDOM GUST ANALYSIS                                                                                  SUBCASE 1              
                                            AERODYNAMIC LOADS  (UNIT DYNAMIC PRESSURE)
                              VECTOR        1          FREQUENCY =   0.000000E+00  HERTZ
 BOX OR                T1 / R1                       T2 / R2                       T3 / R3
 BODY ELMT.    REAL          IMAGINARY       REAL          IMAGINARY       REAL          IMAGINARY   
0      1001   0.000000E+00   0.000000E+00   0.000000E+00   0.000000E+00   0.000000E+00   0.000000E+00
              0.000000E+00   0.000000E+00   0.000000E+00   0.000000E+00   0.000000E+00   0.000000E+00
0      1022   0.000000E+00   0.000000E+00   0.000000E+00   0.000000E+00   0.000000E+00   0.000000E+00
              0.000000E+00   0.000000E+00   0.000000E+00   0.000000E+00   0.000000E+00   0.000000E+00
0      1023   0.000000E+00   0.000000E+00   0.000000E+00   0.000000E+00   0.000000E+00   0.000000E+00
              0.000000E+00   0.000000E+00   0.000000E+00   0.000000E+00   0.000000E+00   0.000000E+00
0      1040   0.000000E+00   0.000000E+00   0.000000E+00   0.000000E+00   0.000000E+00   0.000000E+00
              0.000000E+00   0.000000E+00   0.000000E+00   0.000000E+00   0.000000E+00   0.000000E+00
0      1041   0.000000E+00   0.000000E+00   0.000000E+00   0.000000E+00   0.000000E+00   0.000000E+00
              0.000000E+00   0.000000E+00   0.000000E+00   0.000000E+00   0.000000E+00   0.000000E+00
1     JET TRANSPORT WING DYNAMIC ANALYSIS                                   /    95 SUN SOLARIS NASTRAN    / MAY 17, 95 / PAGE    18
      NASTRAN DEMONSTRATION PROBLEM NO. D11-03-1A                                                                                   
0      RANDOM GUST ANALYSIS                                                                                  SUBCASE 1              
                                            AERODYNAMIC LOADS  (UNIT DYNAMIC PRESSURE)
                              VECTOR        2          FREQUENCY =   2.500000E-01  HERTZ
 BOX OR                T1 / R1                       T2 / R2                       T3 / R3
 BODY ELMT.    REAL          IMAGINARY       REAL          IMAGINARY       REAL          IMAGINARY   
0      1001   0.000000E+00   0.000000E+00   0.000000E+00   0.000000E+00  -2.402053E+00   2.284433E+00
              0.000000E+00   0.000000E+00  -4.940160E+01   4.698257E+01   0.000000E+00   0.000000E+00
0      1022   0.000000E+00   0.000000E+00   0.000000E+00   0.000000E+00  -9.005743E-01   1.053318E+00
              0.000000E+00   0.000000E+00  -5.382338E+00   6.295222E+00   0.000000E+00   0.000000E+00
0      1023   0.000000E+00   0.000000E+00   0.000000E+00   0.000000E+00  -3.780447E-01   4.278406E-01
              0.000000E+00   0.000000E+00  -2.259408E+00   2.557016E+00   0.000000E+00   0.000000E+00
0      1040   0.000000E+00   0.000000E+00   0.000000E+00   0.000000E+00  -1.578719E-01   1.948000E-01
              0.000000E+00   0.000000E+00  -1.504100E+00   1.855927E+00   0.000000E+00   0.000000E+00
0      1041   0.000000E+00   0.000000E+00   0.000000E+00   0.000000E+00  -4.515316E-02   4.903822E-02
              0.000000E+00   0.000000E+00  -4.301895E-01   4.672039E-01   0.000000E+00   0.000000E+00
1     JET TRANSPORT WING DYNAMIC ANALYSIS                                   /    95 SUN SOLARIS NASTRAN    / MAY 17, 95 / PAGE    19
      NASTRAN DEMONSTRATION PROBLEM NO. D11-03-1A                                                                                   
0      RANDOM GUST ANALYSIS                                                                                  SUBCASE 1              
                                            AERODYNAMIC LOADS  (UNIT DYNAMIC PRESSURE)
                              VECTOR        3          FREQUENCY =   5.000000E-01  HERTZ
 BOX OR                T1 / R1                       T2 / R2                       T3 / R3
 BODY ELMT.    REAL          IMAGINARY       REAL          IMAGINARY       REAL          IMAGINARY   
0      1001   0.000000E+00   0.000000E+00   0.000000E+00   0.000000E+00  -6.982867E-01   2.306365E+00
              0.000000E+00   0.000000E+00  -1.436124E+01   4.743364E+01   0.000000E+00   0.000000E+00
0      1022   0.000000E+00   0.000000E+00   0.000000E+00   0.000000E+00  -8.140898E-02   1.000678E+00
              0.000000E+00   0.000000E+00  -4.865455E-01   5.980614E+00   0.000000E+00   0.000000E+00
0      1023   0.000000E+00   0.000000E+00   0.000000E+00   0.000000E+00  -4.706399E-02   4.118764E-01
              0.000000E+00   0.000000E+00  -2.812811E-01   2.461605E+00   0.000000E+00   0.000000E+00
0      1040   0.000000E+00   0.000000E+00   0.000000E+00   0.000000E+00  -4.087976E-03   1.809572E-01
              0.000000E+00   0.000000E+00  -3.894770E-02   1.724042E+00   0.000000E+00   0.000000E+00
0      1041   0.000000E+00   0.000000E+00   0.000000E+00   0.000000E+00  -7.182358E-03   4.780058E-02
              0.000000E+00   0.000000E+00  -6.842883E-02   4.554126E-01   0.000000E+00   0.000000E+00
1     JET TRANSPORT WING DYNAMIC ANALYSIS                                   /    95 SUN SOLARIS NASTRAN    / MAY 17, 95 / PAGE    20
      NASTRAN DEMONSTRATION PROBLEM NO. D11-03-1A                                                                                   
0      RANDOM GUST ANALYSIS                                                                                  SUBCASE 1              
                                            AERODYNAMIC LOADS  (UNIT DYNAMIC PRESSURE)
                              VECTOR        4          FREQUENCY =   7.499999E-01  HERTZ
 BOX OR                T1 / R1                       T2 / R2                       T3 / R3
 BODY ELMT.    REAL          IMAGINARY       REAL          IMAGINARY       REAL          IMAGINARY   
0      1001   0.000000E+00   0.000000E+00   0.000000E+00   0.000000E+00   1.118851E-01   1.805306E+00
              0.000000E+00   0.000000E+00   2.301073E+00   3.712865E+01   0.000000E+00   0.000000E+00
0      1022   0.000000E+00   0.000000E+00   0.000000E+00   0.000000E+00   2.959583E-01   6.900358E-01
              0.000000E+00   0.000000E+00   1.768813E+00   4.124042E+00   0.000000E+00   0.000000E+00
0      1023   0.000000E+00   0.000000E+00   0.000000E+00   0.000000E+00   1.071071E-01   2.916312E-01
              0.000000E+00   0.000000E+00   6.401322E-01   1.742953E+00   0.000000E+00   0.000000E+00
0      1040   0.000000E+00   0.000000E+00   0.000000E+00   0.000000E+00   6.599411E-02   1.181500E-01
              0.000000E+00   0.000000E+00   6.287485E-01   1.125655E+00   0.000000E+00   0.000000E+00
0      1041   0.000000E+00   0.000000E+00   0.000000E+00   0.000000E+00   1.083683E-02   3.448702E-02
              0.000000E+00   0.000000E+00   1.032462E-01   3.285699E-01   0.000000E+00   0.000000E+00
1     JET TRANSPORT WING DYNAMIC ANALYSIS                                   /    95 SUN SOLARIS NASTRAN    / MAY 17, 95 / PAGE    21
      NASTRAN DEMONSTRATION PROBLEM NO. D11-03-1A                                                                                   
0      RANDOM GUST ANALYSIS                                                                                  SUBCASE 1              
                                            AERODYNAMIC LOADS  (UNIT DYNAMIC PRESSURE)
                              VECTOR        5          FREQUENCY =   1.000000E+00  HERTZ
 BOX OR                T1 / R1                       T2 / R2                       T3 / R3
 BODY ELMT.    REAL          IMAGINARY       REAL          IMAGINARY       REAL          IMAGINARY   
0      1001   0.000000E+00   0.000000E+00   0.000000E+00   0.000000E+00   4.728532E-01   1.351751E+00
              0.000000E+00   0.000000E+00   9.724891E+00   2.780066E+01   0.000000E+00   0.000000E+00
0      1022   0.000000E+00   0.000000E+00   0.000000E+00   0.000000E+00   4.445305E-01   3.944474E-01
              0.000000E+00   0.000000E+00   2.656764E+00   2.357439E+00   0.000000E+00   0.000000E+00
0      1023   0.000000E+00   0.000000E+00   0.000000E+00   0.000000E+00   1.703117E-01   1.770817E-01
              0.000000E+00   0.000000E+00   1.017879E+00   1.058340E+00   0.000000E+00   0.000000E+00
0      1040   0.000000E+00   0.000000E+00   0.000000E+00   0.000000E+00   9.228974E-02   5.751444E-02
              0.000000E+00   0.000000E+00   8.792760E-01   5.479599E-01   0.000000E+00   0.000000E+00
0      1041   0.000000E+00   0.000000E+00   0.000000E+00   0.000000E+00   1.868470E-02   2.158384E-02
              0.000000E+00   0.000000E+00   1.780156E-01   2.056367E-01   0.000000E+00   0.000000E+00
1     JET TRANSPORT WING DYNAMIC ANALYSIS                                   /    95 SUN SOLARIS NASTRAN    / MAY 17, 95 / PAGE    22
      NASTRAN DEMONSTRATION PROBLEM NO. D11-03-1A                                                                                   
0      RANDOM GUST ANALYSIS                                                                                  SUBCASE 1              
                                            AERODYNAMIC LOADS  (UNIT DYNAMIC PRESSURE)
                              VECTOR        6          FREQUENCY =   1.250000E+00  HERTZ
 BOX OR                T1 / R1                       T2 / R2                       T3 / R3
 BODY ELMT.    REAL          IMAGINARY       REAL          IMAGINARY       REAL          IMAGINARY   
0      1001   0.000000E+00   0.000000E+00   0.000000E+00   0.000000E+00   6.339365E-01   1.002302E+00
              0.000000E+00   0.000000E+00   1.303780E+01   2.061374E+01   0.000000E+00   0.000000E+00
0      1022   0.000000E+00   0.000000E+00   0.000000E+00   0.000000E+00   4.786380E-01   1.360785E-01
              0.000000E+00   0.000000E+00   2.860610E+00   8.132821E-01   0.000000E+00   0.000000E+00
0      1023   0.000000E+00   0.000000E+00   0.000000E+00   0.000000E+00   1.888397E-01   7.697631E-02
              0.000000E+00   0.000000E+00   1.128613E+00   4.600539E-01   0.000000E+00   0.000000E+00
0      1040   0.000000E+00   0.000000E+00   0.000000E+00   0.000000E+00   9.584768E-02   2.790635E-03
              0.000000E+00   0.000000E+00   9.131739E-01   2.658733E-02   0.000000E+00   0.000000E+00
0      1041   0.000000E+00   0.000000E+00   0.000000E+00   0.000000E+00   2.163349E-02   9.944121E-03
              0.000000E+00   0.000000E+00   2.061097E-01   9.474110E-02   0.000000E+00   0.000000E+00
1     JET TRANSPORT WING DYNAMIC ANALYSIS                                   /    95 SUN SOLARIS NASTRAN    / MAY 17, 95 / PAGE    23
      NASTRAN DEMONSTRATION PROBLEM NO. D11-03-1A                                                                                   
0      RANDOM GUST ANALYSIS                                                                                  SUBCASE 1              
                                            AERODYNAMIC LOADS  (UNIT DYNAMIC PRESSURE)
                              VECTOR        7          FREQUENCY =   1.500000E+00  HERTZ
 BOX OR                T1 / R1                       T2 / R2                       T3 / R3
 BODY ELMT.    REAL          IMAGINARY       REAL          IMAGINARY       REAL          IMAGINARY   
0      1001   0.000000E+00   0.000000E+00   0.000000E+00   0.000000E+00   6.980062E-01   7.410462E-01
              0.000000E+00   0.000000E+00   1.435548E+01   1.524065E+01   0.000000E+00   0.000000E+00
0      1022   0.000000E+00   0.000000E+00   0.000000E+00   0.000000E+00   4.326235E-01  -9.973019E-02
              0.000000E+00   0.000000E+00   2.585601E+00  -5.960434E-01   0.000000E+00   0.000000E+00
0      1023   0.000000E+00   0.000000E+00   0.000000E+00   0.000000E+00   1.770162E-01  -1.510696E-02
              0.000000E+00   0.000000E+00   1.057948E+00  -9.028771E-02   0.000000E+00   0.000000E+00
0      1040   0.000000E+00   0.000000E+00   0.000000E+00   0.000000E+00   8.200706E-02  -4.940379E-02
              0.000000E+00   0.000000E+00   7.813093E-01  -4.706867E-01   0.000000E+00   0.000000E+00
0      1041   0.000000E+00   0.000000E+00   0.000000E+00   0.000000E+00   2.126580E-02  -1.455490E-03
              0.000000E+00   0.000000E+00   2.026066E-01  -1.386697E-02   0.000000E+00   0.000000E+00
1     JET TRANSPORT WING DYNAMIC ANALYSIS                                   /    95 SUN SOLARIS NASTRAN    / MAY 17, 95 / PAGE    24
      NASTRAN DEMONSTRATION PROBLEM NO. D11-03-1A                                                                                   
0      RANDOM GUST ANALYSIS                                                                                  SUBCASE 1              
                                            AERODYNAMIC LOADS  (UNIT DYNAMIC PRESSURE)
                              VECTOR        8          FREQUENCY =   1.750000E+00  HERTZ
 BOX OR                T1 / R1                       T2 / R2                       T3 / R3
 BODY ELMT.    REAL          IMAGINARY       REAL          IMAGINARY       REAL          IMAGINARY   
0      1001   0.000000E+00   0.000000E+00   0.000000E+00   0.000000E+00   7.097093E-01   5.565007E-01
              0.000000E+00   0.000000E+00   1.459617E+01   1.144522E+01   0.000000E+00   0.000000E+00
0      1022   0.000000E+00   0.000000E+00   0.000000E+00   0.000000E+00   2.902003E-01  -3.226295E-01
              0.000000E+00   0.000000E+00   1.734400E+00  -1.928216E+00   0.000000E+00   0.000000E+00
0      1023   0.000000E+00   0.000000E+00   0.000000E+00   0.000000E+00   1.290054E-01  -1.045625E-01
              0.000000E+00   0.000000E+00   7.710091E-01  -6.249241E-01   0.000000E+00   0.000000E+00
0      1040   0.000000E+00   0.000000E+00   0.000000E+00   0.000000E+00   4.488456E-02  -1.014822E-01
              0.000000E+00   0.000000E+00   4.276306E-01  -9.668553E-01   0.000000E+00   0.000000E+00
0      1041   0.000000E+00   0.000000E+00   0.000000E+00   0.000000E+00   1.662625E-02  -1.383614E-02
              0.000000E+00   0.000000E+00   1.584040E-01  -1.318217E-01   0.000000E+00   0.000000E+00
1     JET TRANSPORT WING DYNAMIC ANALYSIS                                   /    95 SUN SOLARIS NASTRAN    / MAY 17, 95 / PAGE    25
      NASTRAN DEMONSTRATION PROBLEM NO. D11-03-1A                                                                                   
0      RANDOM GUST ANALYSIS                                                                                  SUBCASE 1              
                                            AERODYNAMIC LOADS  (UNIT DYNAMIC PRESSURE)
                              VECTOR        9          FREQUENCY =   2.000000E+00  HERTZ
 BOX OR                T1 / R1                       T2 / R2                       T3 / R3
 BODY ELMT.    REAL          IMAGINARY       REAL          IMAGINARY       REAL          IMAGINARY   
0      1001   0.000000E+00   0.000000E+00   0.000000E+00   0.000000E+00   7.001869E-01   4.643757E-01
              0.000000E+00   0.000000E+00   1.440033E+01   9.550537E+00   0.000000E+00   0.000000E+00
0      1022   0.000000E+00   0.000000E+00   0.000000E+00   0.000000E+00  -2.599123E-02  -4.902402E-01
              0.000000E+00   0.000000E+00  -1.553378E-01  -2.929951E+00   0.000000E+00   0.000000E+00
0      1023   0.000000E+00   0.000000E+00   0.000000E+00   0.000000E+00   1.339418E-02  -1.787133E-01
              0.000000E+00   0.000000E+00   8.005115E-02  -1.068091E+00   0.000000E+00   0.000000E+00
0      1040   0.000000E+00   0.000000E+00   0.000000E+00   0.000000E+00  -3.732190E-02  -1.436715E-01
              0.000000E+00   0.000000E+00  -3.555786E-01  -1.368808E+00   0.000000E+00   0.000000E+00
0      1041   0.000000E+00   0.000000E+00   0.000000E+00   0.000000E+00   2.730669E-03  -2.685361E-02
              0.000000E+00   0.000000E+00   2.601604E-02  -2.558436E-01   0.000000E+00   0.000000E+00
1     JET TRANSPORT WING DYNAMIC ANALYSIS                                   /    95 SUN SOLARIS NASTRAN    / MAY 17, 95 / PAGE    26
      NASTRAN DEMONSTRATION PROBLEM NO. D11-03-1A                                                                                   
0      RANDOM GUST ANALYSIS                                                                                  SUBCASE 1              
                                            AERODYNAMIC LOADS  (UNIT DYNAMIC PRESSURE)
                              VECTOR       10          FREQUENCY =   2.250000E+00  HERTZ
 BOX OR                T1 / R1                       T2 / R2                       T3 / R3
 BODY ELMT.    REAL          IMAGINARY       REAL          IMAGINARY       REAL          IMAGINARY   
0      1001   0.000000E+00   0.000000E+00   0.000000E+00   0.000000E+00   7.772623E-01   5.169348E-01
              0.000000E+00   0.000000E+00   1.598549E+01   1.063149E+01   0.000000E+00   0.000000E+00
0      1022   0.000000E+00   0.000000E+00   0.000000E+00   0.000000E+00  -5.827615E-01  -3.111113E-01
              0.000000E+00   0.000000E+00  -3.482909E+00  -1.859376E+00   0.000000E+00   0.000000E+00
0      1023   0.000000E+00   0.000000E+00   0.000000E+00   0.000000E+00  -2.071642E-01  -1.284111E-01
              0.000000E+00   0.000000E+00  -1.238130E+00  -7.674567E-01   0.000000E+00   0.000000E+00
0      1040   0.000000E+00   0.000000E+00   0.000000E+00   0.000000E+00  -1.887154E-01  -1.023940E-01
              0.000000E+00   0.000000E+00  -1.797956E+00  -9.755431E-01   0.000000E+00   0.000000E+00
0      1041   0.000000E+00   0.000000E+00   0.000000E+00   0.000000E+00  -3.007463E-02  -2.739676E-02
              0.000000E+00   0.000000E+00  -2.865314E-01  -2.610184E-01   0.000000E+00   0.000000E+00
1     JET TRANSPORT WING DYNAMIC ANALYSIS                                   /    95 SUN SOLARIS NASTRAN    / MAY 17, 95 / PAGE    27
      NASTRAN DEMONSTRATION PROBLEM NO. D11-03-1A                                                                                   
0      RANDOM GUST ANALYSIS                                                                                  SUBCASE 1              
                                            AERODYNAMIC LOADS  (UNIT DYNAMIC PRESSURE)
                              VECTOR       11          FREQUENCY =   2.500000E+00  HERTZ
 BOX OR                T1 / R1                       T2 / R2                       T3 / R3
 BODY ELMT.    REAL          IMAGINARY       REAL          IMAGINARY       REAL          IMAGINARY   
0      1001   0.000000E+00   0.000000E+00   0.000000E+00   0.000000E+00   1.230625E+00   5.104005E-01
              0.000000E+00   0.000000E+00   2.530954E+01   1.049710E+01   0.000000E+00   0.000000E+00
0      1022   0.000000E+00   0.000000E+00   0.000000E+00   0.000000E+00  -6.370990E-01   6.066022E-01
              0.000000E+00   0.000000E+00  -3.807662E+00   3.625396E+00   0.000000E+00   0.000000E+00
0      1023   0.000000E+00   0.000000E+00   0.000000E+00   0.000000E+00  -2.624075E-01   2.277428E-01
              0.000000E+00   0.000000E+00  -1.568295E+00   1.361119E+00   0.000000E+00   0.000000E+00
0      1040   0.000000E+00   0.000000E+00   0.000000E+00   0.000000E+00  -2.301175E-01   1.388990E-01
              0.000000E+00   0.000000E+00  -2.192409E+00   1.323338E+00   0.000000E+00   0.000000E+00
0      1041   0.000000E+00   0.000000E+00   0.000000E+00   0.000000E+00  -5.328496E-02   2.003928E-02
              0.000000E+00   0.000000E+00  -5.076640E-01   1.909211E-01   0.000000E+00   0.000000E+00
1     JET TRANSPORT WING DYNAMIC ANALYSIS                                   /    95 SUN SOLARIS NASTRAN    / MAY 17, 95 / PAGE    28
      NASTRAN DEMONSTRATION PROBLEM NO. D11-03-1A                                                                                   
0      RANDOM GUST ANALYSIS                                                                                  SUBCASE 1              
                                            AERODYNAMIC LOADS  (UNIT DYNAMIC PRESSURE)
                              VECTOR       12          FREQUENCY =   2.750000E+00  HERTZ
 BOX OR                T1 / R1                       T2 / R2                       T3 / R3
 BODY ELMT.    REAL          IMAGINARY       REAL          IMAGINARY       REAL          IMAGINARY   
0      1001   0.000000E+00   0.000000E+00   0.000000E+00   0.000000E+00   1.781764E+00  -6.818798E-02
              0.000000E+00   0.000000E+00   3.664450E+01  -1.402383E+00   0.000000E+00   0.000000E+00
0      1022   0.000000E+00   0.000000E+00   0.000000E+00   0.000000E+00   3.529716E-01   9.330393E-01
              0.000000E+00   0.000000E+00   2.109557E+00   5.576368E+00   0.000000E+00   0.000000E+00
0      1023   0.000000E+00   0.000000E+00   0.000000E+00   0.000000E+00   1.139250E-01   4.015257E-01
              0.000000E+00   0.000000E+00   6.808803E-01   2.399743E+00   0.000000E+00   0.000000E+00
0      1040   0.000000E+00   0.000000E+00   0.000000E+00   0.000000E+00   1.138483E-03   2.590508E-01
              0.000000E+00   0.000000E+00   1.084663E-02   2.468067E+00   0.000000E+00   0.000000E+00
0      1041   0.000000E+00   0.000000E+00   0.000000E+00   0.000000E+00  -1.149008E-02   6.184461E-02
              0.000000E+00   0.000000E+00  -1.094700E-01   5.892149E-01   0.000000E+00   0.000000E+00
1     JET TRANSPORT WING DYNAMIC ANALYSIS                                   /    95 SUN SOLARIS NASTRAN    / MAY 17, 95 / PAGE    29
      NASTRAN DEMONSTRATION PROBLEM NO. D11-03-1A                                                                                   
0      RANDOM GUST ANALYSIS                                                                                  SUBCASE 1              
                                            AERODYNAMIC LOADS  (UNIT DYNAMIC PRESSURE)
                              VECTOR       13          FREQUENCY =   3.000000E+00  HERTZ
 BOX OR                T1 / R1                       T2 / R2                       T3 / R3
 BODY ELMT.    REAL          IMAGINARY       REAL          IMAGINARY       REAL          IMAGINARY   
0      1001   0.000000E+00   0.000000E+00   0.000000E+00   0.000000E+00   2.013966E+00  -1.320209E+00
              0.000000E+00   0.000000E+00   4.142004E+01  -2.715196E+01   0.000000E+00   0.000000E+00
0      1022   0.000000E+00   0.000000E+00   0.000000E+00   0.000000E+00   1.209981E+00   1.927490E-01
              0.000000E+00   0.000000E+00   7.231527E+00   1.151977E+00   0.000000E+00   0.000000E+00
0      1023   0.000000E+00   0.000000E+00   0.000000E+00   0.000000E+00   5.002210E-01   1.561576E-01
              0.000000E+00   0.000000E+00   2.989602E+00   9.332861E-01   0.000000E+00   0.000000E+00
0      1040   0.000000E+00   0.000000E+00   0.000000E+00   0.000000E+00   2.202039E-01   1.334554E-01
              0.000000E+00   0.000000E+00   2.097959E+00   1.271476E+00   0.000000E+00   0.000000E+00
0      1041   0.000000E+00   0.000000E+00   0.000000E+00   0.000000E+00   4.996016E-02   5.144263E-02
              0.000000E+00   0.000000E+00   4.759876E-01   4.901114E-01   0.000000E+00   0.000000E+00
1     JET TRANSPORT WING DYNAMIC ANALYSIS                                   /    95 SUN SOLARIS NASTRAN    / MAY 17, 95 / PAGE    30
      NASTRAN DEMONSTRATION PROBLEM NO. D11-03-1A                                                                                   
0      RANDOM GUST ANALYSIS                                                                                  SUBCASE 1              
                                            AERODYNAMIC LOADS  (UNIT DYNAMIC PRESSURE)
                              VECTOR       14          FREQUENCY =   3.250000E+00  HERTZ
 BOX OR                T1 / R1                       T2 / R2                       T3 / R3
 BODY ELMT.    REAL          IMAGINARY       REAL          IMAGINARY       REAL          IMAGINARY   
0      1001   0.000000E+00   0.000000E+00   0.000000E+00   0.000000E+00   8.505885E-02  -2.966458E+00
              0.000000E+00   0.000000E+00   1.749355E+00  -6.100939E+01   0.000000E+00   0.000000E+00
0      1022   0.000000E+00   0.000000E+00   0.000000E+00   0.000000E+00   5.559639E-01  -1.377472E+00
              0.000000E+00   0.000000E+00   3.322753E+00  -8.232541E+00   0.000000E+00   0.000000E+00
0      1023   0.000000E+00   0.000000E+00   0.000000E+00   0.000000E+00   3.468482E-01  -5.268956E-01
              0.000000E+00   0.000000E+00   2.072961E+00  -3.149025E+00   0.000000E+00   0.000000E+00
0      1040   0.000000E+00   0.000000E+00   0.000000E+00   0.000000E+00   1.604778E-01  -2.019795E-01
              0.000000E+00   0.000000E+00   1.528927E+00  -1.924328E+00   0.000000E+00   0.000000E+00
0      1041   0.000000E+00   0.000000E+00   0.000000E+00   0.000000E+00   6.927990E-02  -3.908950E-02
              0.000000E+00   0.000000E+00   6.600534E-01  -3.724190E-01   0.000000E+00   0.000000E+00
1     JET TRANSPORT WING DYNAMIC ANALYSIS                                   /    95 SUN SOLARIS NASTRAN    / MAY 17, 95 / PAGE    31
      NASTRAN DEMONSTRATION PROBLEM NO. D11-03-1A                                                                                   
0      RANDOM GUST ANALYSIS                                                                                  SUBCASE 1              
                                            AERODYNAMIC LOADS  (UNIT DYNAMIC PRESSURE)
                              VECTOR       15          FREQUENCY =   3.500000E+00  HERTZ
 BOX OR                T1 / R1                       T2 / R2                       T3 / R3
 BODY ELMT.    REAL          IMAGINARY       REAL          IMAGINARY       REAL          IMAGINARY   
0      1001   0.000000E+00   0.000000E+00   0.000000E+00   0.000000E+00  -1.434974E+00  -1.053545E+00
              0.000000E+00   0.000000E+00  -2.951226E+01  -2.166764E+01   0.000000E+00   0.000000E+00
0      1022   0.000000E+00   0.000000E+00   0.000000E+00   0.000000E+00  -7.219125E-01  -5.893652E-01
              0.000000E+00   0.000000E+00  -4.314555E+00  -3.522377E+00   0.000000E+00   0.000000E+00
0      1023   0.000000E+00   0.000000E+00   0.000000E+00   0.000000E+00  -2.342878E-01  -3.078627E-01
              0.000000E+00   0.000000E+00  -1.400235E+00  -1.839961E+00   0.000000E+00   0.000000E+00
0      1040   0.000000E+00   0.000000E+00   0.000000E+00   0.000000E+00  -1.052467E-01  -1.057002E-01
              0.000000E+00   0.000000E+00  -1.002721E+00  -1.007042E+00   0.000000E+00   0.000000E+00
0      1041   0.000000E+00   0.000000E+00   0.000000E+00   0.000000E+00  -1.131767E-02  -4.548838E-02
              0.000000E+00   0.000000E+00  -1.078274E-01  -4.333836E-01   0.000000E+00   0.000000E+00
1     JET TRANSPORT WING DYNAMIC ANALYSIS                                   /    95 SUN SOLARIS NASTRAN    / MAY 17, 95 / PAGE    32
      NASTRAN DEMONSTRATION PROBLEM NO. D11-03-1A                                                                                   
0      RANDOM GUST ANALYSIS                                                                                  SUBCASE 1              
                                            AERODYNAMIC LOADS  (UNIT DYNAMIC PRESSURE)
                              VECTOR       16          FREQUENCY =   3.750000E+00  HERTZ
 BOX OR                T1 / R1                       T2 / R2                       T3 / R3
 BODY ELMT.    REAL          IMAGINARY       REAL          IMAGINARY       REAL          IMAGINARY   
0      1001   0.000000E+00   0.000000E+00   0.000000E+00   0.000000E+00  -9.408030E-01  -1.683781E-01
              0.000000E+00   0.000000E+00  -1.934894E+01  -3.462934E+00   0.000000E+00   0.000000E+00
0      1022   0.000000E+00   0.000000E+00   0.000000E+00   0.000000E+00  -5.469025E-01   8.016444E-03
              0.000000E+00   0.000000E+00  -3.268598E+00   4.791101E-02   0.000000E+00   0.000000E+00
0      1023   0.000000E+00   0.000000E+00   0.000000E+00   0.000000E+00  -2.150967E-01  -5.256270E-02
[...]
  2.0000E+00 *                                                          I                                                          I
  2.2500E+00 *                                                          I                                                          I
  2.5000E+00 *                                                          I                                                          I
  2.7500E+00 *                                                          I                                                          I
  3.0000E+00 *                                                          I                                                          I
  3.2500E+00 *                                                          I                                                          I
  3.5000E+00 *                                                          I                                                          I
  3.7500E+00 *                                                          I                                                          I
  4.0000E+00 *                                                          I                                                          I
  4.2500E+00 *                                                          I                                                          I
  4.5000E+00 *                                                          I                                                          I
  4.7500E+00 *                                                          I                                                          I
  5.0000E+00 *                                                          I                                                          I
  5.2500E+00 *                                                          I                                                          I
  5.5000E+00 *                                                          I                                                          I
  5.7500E+00 *                                                          I                                                          I
  6.0000E+00 *                                                          I                                                          I
  6.2500E+00 *                                                          I                                                          I
  6.5000E+00 *                                                          I                                                          I
  6.7500E+00 *                                                          I                                                          I
  7.0000E+00 *                                                          I                                                          I
  7.2500E+00 *                                                          I                                                          I
1 7.5000E+00 *                                                          I                                                          I
  7.7500E+00 *                                                          I                                                          I
  8.0000E+00 *                                                          I                                                          I
  8.2500E+00 *                                                          I                                                          I
  8.5000E+00 *                                                          I                                                          I
  8.7500E+00 *                                                          I                                                          I
  9.0000E+00 *                                                          I                                                          I
  9.2500E+00 *                                                          I                                                          I
  9.5000E+00 *                                                          I                                                          I
  9.7500E+00 *                                                          I                                                          I
  1.0000E+01 I                                                          I                                                          I
             +---------------------------------------------------------------------------------------------------------------------+
1     JET TRANSPORT WING DYNAMIC ANALYSIS                                   /    95 SUN SOLARIS NASTRAN    / MAY 17, 95 / PAGE   118
      NASTRAN DEMONSTRATION PROBLEM NO. D11-03-1A                                                                                   
0     SYMMETRIC RESPONSE , STIFF AILERON                                                                                            
0                                                            F     R     A     M     E

                                                           ****  ****  ****   **   ****
                                                           *  *  *  *  *  *    *   *  *
                                                           *  *  *  *  *  *    *   *  *
                                                           *  *  *  *  *  *    *   *  *
                                                           ****  ****  ****  ****  ****

0           POWER SPECTRAL DENSITY FUNCTION                                                                                         
0    X-AXIS TITLE =  FREQUENCY (HERTZ)      JET TRANSPORT , RANDOM ANALYSIS                                                         
0
             +---------------------------------------------------------------------------------------------------------------------+
             I                                                                                                                     I
             I  WING TIP DISPLACEMENT (9T3)     , PSDF , GUST LOAD                                                                 I
             I                                                                                                                     I
             I  0.000000E+00                                       1.750000E-01                                       3.500000E-01 I
             +---------------------------------------------------------------------------------------------------------------------+
  0.0000E+00 *                                                          I                                                          I
  2.5000E-01 I                                                          I                                                     *    I
  5.0000E-01 I   *                                                      I                                                          I
  7.5000E-01 *                                                          I                                                          I
  1.0000E+00 *                                                          I                                                          I
  1.2500E+00 *                                                          I                                                          I
  1.5000E+00 *                                                          I                                                          I
  1.7500E+00 *                                                          I                                                          I
  2.0000E+00 *                                                          I                                                          I
  2.2500E+00 *                                                          I                                                          I
  2.5000E+00 *                                                          I                                                          I
  2.7500E+00 *                                                          I                                                          I
  3.0000E+00 *                                                          I                                                          I
  3.2500E+00 *                                                          I                                                          I
  3.5000E+00 *                                                          I                                                          I
  3.7500E+00 *                                                          I                                                          I
  4.0000E+00 *                                                          I                                                          I
  4.2500E+00 *                                                          I                                                          I
  4.5000E+00 *                                                          I                                                          I
  4.7500E+00 *                                                          I                                                          I
  5.0000E+00 *                                                          I                                                          I
  5.2500E+00 *                                                          I                                                          I
  5.5000E+00 *                                                          I                                                          I
  5.7500E+00 *                                                          I                                                          I
  6.0000E+00 *                                                          I                                                          I
  6.2500E+00 *                                                          I                                                          I
  6.5000E+00 *                                                          I                                                          I
  6.7500E+00 *                                                          I                                                          I
  7.0000E+00 *                                                          I                                                          I
  7.2500E+00 *                                                          I                                                          I
1 7.5000E+00 *                                                          I                                                          I
  7.7500E+00 *                                                          I                                                          I
  8.0000E+00 *                                                          I                                                          I
  8.2500E+00 *                                                          I                                                          I
  8.5000E+00 *                                                          I                                                          I
  8.7500E+00 *                                                          I                                                          I
  9.0000E+00 *                                                          I                                                          I
  9.2500E+00 *                                                          I                                                          I
  9.5000E+00 *                                                          I                                                          I
  9.7500E+00 *                                                          I                                                          I
  1.0000E+01 I                                                          I                                                          I
             +---------------------------------------------------------------------------------------------------------------------+
1     JET TRANSPORT WING DYNAMIC ANALYSIS                                   /    95 SUN SOLARIS NASTRAN    / MAY 17, 95 / PAGE   119
      NASTRAN DEMONSTRATION PROBLEM NO. D11-03-1A                                                                                   
0     SYMMETRIC RESPONSE , STIFF AILERON                                                                                            
0                                                            F     R     A     M     E

                                                           ****  ****  ****   **    ** 
                                                           *  *  *  *  *  *    *     * 
                                                           *  *  *  *  *  *    *     * 
                                                           *  *  *  *  *  *    *     * 
                                                           ****  ****  ****  ****  ****

0           POWER SPECTRAL DENSITY FUNCTION                                                                                         
0    X-AXIS TITLE =  FREQUENCY (HERTZ)      JET TRANSPORT , RANDOM ANALYSIS                                                         
0
             +---------------------------------------------------------------------------------------------------------------------+
             I                                                                                                                     I
             I  WING ROOT BENDING MOMENT (11R3) , PSDF , GUST LOAD                                                                 I
             I                                                                                                                     I
             I  0.000000E+00                                       1.000000E+08                                       2.000000E+08 I
             +---------------------------------------------------------------------------------------------------------------------+
  0.0000E+00 *                                                          I                                                          I
  2.5000E-01 I                                                          I                                               *          I
  5.0000E-01 I                                                          I                             *                            I
  7.5000E-01 I                                                          I*                                                         I
  1.0000E+00 I                                           *              I                                                          I
  1.2500E+00 I                                    *                     I                                                          I
  1.5000E+00 I                                  *                       I                                                          I
  1.7500E+00 I                                     *                    I                                                          I
  2.0000E+00 I                                               *          I                                                          I
  2.2500E+00 I                                                          I      *                                                   I
  2.5000E+00 I                                                          I      *                                                   I
  2.7500E+00 I                                    *                     I                                                          I
  3.0000E+00 I                   *                                      I                                                          I
  3.2500E+00 I       *                                                  I                                                          I
  3.5000E+00 I*                                                         I                                                          I
  3.7500E+00 *                                                          I                                                          I
  4.0000E+00 *                                                          I                                                          I
  4.2500E+00 *                                                          I                                                          I
  4.5000E+00 *                                                          I                                                          I
  4.7500E+00 *                                                          I                                                          I
  5.0000E+00 *                                                          I                                                          I
  5.2500E+00 *                                                          I                                                          I
  5.5000E+00 *                                                          I                                                          I
  5.7500E+00 *                                                          I                                                          I
  6.0000E+00 *                                                          I                                                          I
  6.2500E+00 *                                                          I                                                          I
  6.5000E+00 *                                                          I                                                          I
  6.7500E+00 *                                                          I                                                          I
  7.0000E+00 *                                                          I                                                          I
  7.2500E+00 *                                                          I                                                          I
1 7.5000E+00 *                                                          I                                                          I
  7.7500E+00 *                                                          I                                                          I
  8.0000E+00 *                                                          I                                                          I
  8.2500E+00 *                                                          I                                                          I
  8.5000E+00 *                                                          I                                                          I
  8.7500E+00 *                                                          I                                                          I
  9.0000E+00 *                                                          I                                                          I
  9.2500E+00 *                                                          I                                                          I
  9.5000E+00 *                                                          I                                                          I
  9.7500E+00 *                                                          I                                                          I
  1.0000E+01 I                                                          I                                                          I
             +---------------------------------------------------------------------------------------------------------------------+




                                        * * * END OF JOB * * *
1
 JOB TITLE =  JET TRANSPORT WING DYNAMIC ANALYSIS                                
 DATE:  5/17/95
 END TIME: 16:19:47
 TOTAL WALL CLOCK TIME      3 SEC.
 
