





                                  ****
                                *      *
                               *        *
                               *  N A S T R A N
                               *        *
                                *      *
                                  ****


                             SUN COMPUTER SYSTEMS    
                                SOLARIS VERSION

                          SYSTEM RELEASE -  1995 ED.

                                DISTRIBUTED BY

         COMPUTER SOFTWARE MANAGEMENT AND INFORMATION CENTER (COSMIC)
                 UNIVERSITY OF GEORGIA, ATHENS, GEORGIA 30602
                 PHONE: (706)542-3265      FAX: (706)542-4807
1                                                                           /    95 SUN SOLARIS NASTRAN    / MAY 17, 95 / PAGE     2
                                                                                                                                    
0                                                                                                                                   
                                                                                                         
                                                                                                         
                         INSTALLATION CENTER USER INFORMATION GIVEN IN THIS SECTION                      
                                                                                                         
                                     *********************************************                       
                                     *                                           *                       
                                     *  PLEASE READ THE COMMENT IN DEMO PROBLEM  *                       
                                     *  D01002A ABOUT SYSTEM TIMING CONSTANTS    *                       
                                     *                                           *                       
                                     *********************************************                       
                                                                                                         
                         ===X=    TOP OF PAGE REQUEST IF 'X' IS REPLACED BY '='                          
                                                                                                         
1                                                                           /    95 SUN SOLARIS NASTRAN    / MAY 17, 95 / PAGE     3
                                                                                                                                    
0                                                                                                                                   
0*** USER INFORMATION MESSAGE 225, GINO TIME CONSTANTS ARE BEING COMPUTED
     (SEE NASINFO FILE FOR ELIMINATION OF THESE COMPUTATIONS)
1                                                                           /    95 SUN SOLARIS NASTRAN    / MAY 17, 95 / PAGE     4
                                                                                                                                    
0        N A S T R A N    E X E C U T I V E    C O N T R O L    D E C K    E C H O                                                  
0                                                                                                                                   
                                                                                                                                    
                                                                                                                                    
     ID    T01191A,NASTRAN                                                           
     DIAG  14                                                                        
     APP   HEAT                                                                      
     SOL   1                                                                         
     TIME  20                                                                        
     ALTER   67,67 $                                                                 
     MAGBDY  GEOM1,HEQEXIN/PER/S,N,IPG $                                             
     SSG1    HSLT,BGPDT,CSTM,HSIL,HEST,MPT,GPTT,EDT,,CASECC,DIT,PER/                 
             HPG,HCFLD,REMFLD,HCCEN,NSLT/HLUSET/NSKIP $                              
     ALTER   77 $                                                                    
     SDR1,   ,HCFLD,,,,,,,,, /,HCFLDG,/V,N,NSKIP/C,N,STATICS $                       
     SDR1,   ,HCCEN,,,,,,,,, /,HCCENG,/V,N,NSKIP/C,N,STATICS $                       
     SDR1,   ,REMFLD,,,,,,,,,/,REMFLG,/V,N,NSKIP/C,N,STATICS $                       
     ALTER   84 $                                                                    
     EMFLD   HOEF1,HEST,CASECC,HCFLDG,MPT,DIT,REMFLG,GEOM1,CSTM,                     
             HCCENG/HOEH1/V,N,HLUSET $                                               
     ALTER   85 $                                                                    
     OFP     HOEH1,,,,,//S,N,CARDNO $                                                
     PROLATE GEOM1,HEQEXIN,BGPDT,CASECC,NSLT,HUGV,REMFLG,HEST,MPT,DIT/PROCOF$        
     OUTPUT2 PROCOF,,,,//0/11 $                                                      
     TABPT   PROCOF,,,,// $                                                          
     ENDALTER $                                                                      
     CEND                                                                            


0*** USER INFORMATION MESSAGE, TURN DIAG 48 ON FOR NASTRAN RELEASE NEWS, DIAG DEFINITION, NEW DMAP
         MODULES AND NEW BULKDATA CARDS INFORMATION
1     ELECTRIC AND MAGNETOSTATICS PROBLEM USING 2-D ELEMENTS                /    95 SUN SOLARIS NASTRAN    / MAY 17, 95 / PAGE     5
      NASTRAN TEST PROBLEM NO. T01-19-1A                                                                                            
0                                                                                                                                   
0                                        C A S E    C O N T R O L   D E C K   E C H O                                               
                 CARD                                                                                                               
                 COUNT                                                                                                              
                  1      TITLE    = ELECTRIC AND MAGNETOSTATICS PROBLEM USING 2-D ELEMENTS               
                  2      SUBTITLE = NASTRAN TEST PROBLEM NO. T01-19-1A                                   
                  3      DISP    = ALL                                                                   
                  4      OLOAD   = ALL                                                                   
                  5      ELFORCE = ALL                                                                   
                  6      SUBCASE 1                                                                       
                  7         LOAD = 6                                                                     
                  8      SUBCASE 2                                                                       
                  9         LOAD = 5                                                                     
                 10      SUBCASE 3                                                                       
                 11         LOAD = 7                                                                     
                 12      SUBCOM  4                                                                       
                 13       SUBSEQ = .5,.5,0.                                                              
                 14      SUBCASE 5                                                                       
                 15         LOAD = 13                                                                    
                 16      SUBCASE 6                                                                       
                 17         LOAD = 12                                                                    
                 18      SUBCASE 7                                                                       
                 19         LOAD = 11                                                                    
                 20      SUBCASE 100                                                                     
                 21         LOAD = 100                                                                   
                 22      BEGIN BULK                                                                      


                        (NO. OF UNSORTED BULK DATA CARDS READ =   108, INCLUDING   0 COMMENT CARDS)
0*** USER INFORMATION MESSAGE 207, BULK DATA DECK IS NOT SORTED. NASTRAN WILL RE-ORDER THE INPUT DECK.
1     ELECTRIC AND MAGNETOSTATICS PROBLEM USING 2-D ELEMENTS                /    95 SUN SOLARIS NASTRAN    / MAY 17, 95 / PAGE     6
      NASTRAN TEST PROBLEM NO. T01-19-1A                                                                                            
0                                                                                                                                   
0                                                 S O R T E D   B U L K    D A T A    E C H O                                       
                     CARD                                                                                                           
                     COUNT        ---1--- +++2+++ ---3--- +++4+++ ---5--- +++6+++ ---7--- +++8+++ ---9--- +++10+++                  
                    1-        BFIELD  0       6       THRU    8                                               
                    2-        BFIELD  1       5       1       2       3       100                             
                    3-        BFIELD  2       -1                                                              
                    4-        CEMLOOP 12      5.      0       5.      0.      0.      1.25    3.75    +CM12   
                    5-        +CM12   0.      1.25    0.      0.                                              
                    6-        CIS2D8  100     1       110     111     112     113     210     211     +CIS    
                    7-        +CIS    212     213                                                             
                    8-        CORD2R  1               0.      0.      0.      0.      0.      1.      +C1     
                    9-        +C1     0.      1.      1.                                                      
                   10-        CORD2R  2               0.      0.      0.      0.      0.      1.      +C2     
                   11-        +C2     -1.     0.      1.                                                      
                   12-        CQDMEM  1       1       10      11      12      13                              
                   13-        CQDMEM  3       1       21      18      19      20                              
                   14-        CQUAD1  2       2       15      14      17      16                              
                   15-        CQUAD2  4       3       24      25      22      23                              
                   16-        CTRIA1  5       4       5       4       6                                       
                   17-        CTRIA2  6       5       9       7       8                                       
                   18-        CTRIA2  7       5       27      28      26                                      
                   19-        CTRMEM  8       6       1       2       3                                       
                   20-        GEMLOOP 13      5.              5.      0.      0.      4.94    .65     +G1     
                   21-        +G1     0.      4.77    1.28    0.      4.5     1.88    0.      4.12    +G2     
                   22-        +G2     2.41    0.      3.66    2.87    0.      3.13    3.25    0.      +G3     
                   23-        +G3     2.53    3.52    0.      1.9     3.69    0.      1.25    3.75    +G4     
                   24-        +G4     0.      .6      3.69    0.      -.03    3.52    0.      -.62    +G5     
                   25-        +G5     3.25    0.      -1.16   2.87    0.      -1.62   2.41    0.      +G6     
                   26-        +G6     ENDT                                                                    
                   27-        GEMLOOP 13      5.              1.9     -3.69   0.      2.53    -3.52   +G13    
                   28-        +G13    0.      3.12    -3.25   0.      3.66    -2.87   0.      4.12    +G14    
                   29-        +G14    -2.41   0.      4.5     -1.87   0.      4.77    -1.28   0.      +G15    
                   30-        +G15    4.94    -.65    0.      5.      0.      0.      ENDT                    
                   31-        GEMLOOP 13      5.              -1.62   2.41    0.      -2.     1.87    +G7     
                   32-        +G7     0.      -2.27   1.28    0.      -2.44   .65     0.      -2.5    +G8     
                   33-        +G8     0.      0.      -2.44   -.65    0.      -2.27   -1.28   0.      +G9     
                   34-        +G9     -2.     -1.87   0.      -1.62   -2.41   0.      -1.16   -2.87   +G10    
                   35-        +G10    0.      -.62    -3.25   0.      -.03    -3.52   0.      .6      +G11    
                   36-        +G11    -3.69   0.      1.25    -3.75   0.      1.9     -3.69   0.      +G12    
                   37-        +G12    ENDT                                                                    
                   38-        GRID    1               0.      0.                      1                       
                   39-        GRID    2               2.82842 2.82842                                         
                   40-        GRID    3               1.41421 1.41421 2.                                      
                   41-        GRID    4               0.      0.                      1                       
                   42-        GRID    5               2.82842 2.82842                                         
                   43-        GRID    6               1.41421 1.41421 2.                                      
                   44-        GRID    7               0.      0.                      1                       
                   45-        GRID    8               2.82842 2.82842                                         
                   46-        GRID    9               1.41421 1.41421 2.                                      
                   47-        GRID    10              0.      0.                      1                       
1     ELECTRIC AND MAGNETOSTATICS PROBLEM USING 2-D ELEMENTS                /    95 SUN SOLARIS NASTRAN    / MAY 17, 95 / PAGE     7
      NASTRAN TEST PROBLEM NO. T01-19-1A                                                                                            

                                                                                                                                    

                                                  S O R T E D   B U L K    D A T A    E C H O                                       
                     CARD                                                                                                           
                     COUNT        ---1--- +++2+++ ---3--- +++4+++ ---5--- +++6+++ ---7--- +++8+++ ---9--- +++10+++                  
                   48-        GRID    11              2.82842 2.82842                                         
                   49-        GRID    12              2.82842 2.82842 2.                                      
                   50-        GRID    13              0.      0.      2.                                      
                   51-        GRID    14              0.      0.                      1                       
                   52-        GRID    15              2.82842 2.82842                                         
                   53-        GRID    16              2.82842 2.82842 2.                                      
                   54-        GRID    17              0.      0.      2.                                      
                   55-        GRID    18              0.      0.                      1                       
                   56-        GRID    19              2.82842 2.82842                                         
                   57-        GRID    20              2.82842 2.82842 2.                                      
                   58-        GRID    21              0.      0.      2.                                      
                   59-        GRID    22              0.      0.                      1                       
                   60-        GRID    23              2.82842 2.82842                                         
                   61-        GRID    24              2.82842 2.82842 2.                                      
                   62-        GRID    25              0.      0.      2.                                      
                   63-        GRID    26              0.      0.                      1                       
                   64-        GRID    27              2.82842 2.82842                                         
                   65-        GRID    28              1.41421 1.41421 2.                                      
                   66-        GRID    110             0.      0.                      1                       
                   67-        GRID    111             2.82842 2.82842                                         
                   68-        GRID    112             2.82842 2.82842 2.                                      
                   69-        GRID    113             0.      0.      2.                                      
                   70-        GRID    210             1.41421 1.41421                                         
                   71-        GRID    211             2.82842 2.82842 1.                                      
                   72-        GRID    212             1.41421 1.41421 2.                                      
                   73-        GRID    213             0.      0.      1.                                      
                   74-        LOAD    7       1.      1.      5       1.      6                               
                   75-        MAT4    1       250.                                                            
                   76-        MDIPOLE 11      0       5.      0.      0.      10.     10.     10.     +M1     
                   77-        +M1     0.      0.                                                              
                   78-        PIS2D8  1       1       2.                                                      
                   79-        PQDMEM  1       1       2.                                                      
                   80-        PQUAD1  2       1       2.      1       2.      1       2.                      
                   81-        PQUAD2  3       1       2.                                                      
                   82-        PTRIA1  4       1       2.      1       2.      1       2.                      
                   83-        PTRIA2  5       1       2.                                                      
                   84-        PTRMEM  6       1       2.                                                      
                   85-        REMFLUX 6               7312.5  8625.   10500.  100                             
                   86-        REMFLUX 6               7312.5  8625.   10500.  1       THRU    4               
                   87-        REMFLUX 6               6333.3337833.3339583.3336       5       8               
                   88-        REMFLUX 6               6333.3337833.3339583.3337                               
                   89-        SPCFLD  5               10.     20.     30.     26      22                      
                   90-        SPCFLD  5               33.     37.     42.5    211                             
                   91-        SPCFLD  5               10.     20.     30.     7       18                      
                   92-        SPCFLD  5               17.5    25.     31.     210                             
                   93-        SPCFLD  5               25.     30.     32.     2       11      111             
                   94-        SPCFLD  5               41.     44.     53.     212                             
1     ELECTRIC AND MAGNETOSTATICS PROBLEM USING 2-D ELEMENTS                /    95 SUN SOLARIS NASTRAN    / MAY 17, 95 / PAGE     8
      NASTRAN TEST PROBLEM NO. T01-19-1A                                                                                            

                                                                                                                                    

                                                  S O R T E D   B U L K    D A T A    E C H O                                       
                     CARD                                                                                                           
                     COUNT        ---1--- +++2+++ ---3--- +++4+++ ---5--- +++6+++ ---7--- +++8+++ ---9--- +++10+++                  
                   95-        SPCFLD  5               25.5    32.     41.5    213                             
                   96-        SPCFLD  5               10.     20.     30.     4       14                      
                   97-        SPCFLD  5               10.     20.     30.     1       10      110             
                   98-        SPCFLD  5               41.     44.     53.     28      24      25              
                   99-        SPCFLD  5               25.     30.     32.     5       15                      
                  100-        SPCFLD  5               25.     30.     32.     8       19                      
                  101-        SPCFLD  5               25.     30.     32.     27      23                      
                  102-        SPCFLD  5               41.     44.     53.     6       16      17              
                  103-        SPCFLD  5               41.     44.     53.     9       20      21              
                  104-        SPCFLD  5               41.     44.     53.     112     113                     
                  105-        SPCFLD  5               41.     44.     53.     3       12      13              
                  106-        SPCFLD  100             10.     20.     30.     210     THRU    213             
                  107-        SPCFLD  100             10.     20.     30.     10      THRU    13              
                  108-        SPCFLD  100             10.     20.     30.     110     THRU    113             
                              ENDDATA
1     ELECTRIC AND MAGNETOSTATICS PROBLEM USING 2-D ELEMENTS                /    95 SUN SOLARIS NASTRAN    / MAY 17, 95 / PAGE     9
      NASTRAN TEST PROBLEM NO. T01-19-1A                                                                                            
0                                                                                                                                   
0         COSMIC / NASTRAN DMAP COMPILER - SOURCE LISTING                                                                           
                                                                                                                                    
                                                                                                                                    
0  OPTIONS IN EFFECT GO      ERR=2   LIST    NODECK  NOREF   NOOSCAR 
   -----------------


       1  BEGIN    HEAT 01 - STATIC HEAT TRANSFER ANALYSIS - APR. 1995 $          

       2  PRECHK   ALL $                                                          

       3  FILE     HQG=APPEND/HPGG=APPEND/HUGV=APPEND/HGM=SAVE/HKNN=SAVE $        

       4  PARAM    //*MPY*/CARDNO/0/0 $                                           

       5  GP1      GEOM1,GEOM2,/GPL,EQEXIN,GPDT,CSTM,BGPDT,HSIL/S,N,HLUSET/       
                   NOGPDT/MINUS1=-1 $                                             

       6  ANISOP   GEOM1,EPT,BGPDT,EQEXIN,MPT/MPTA/S,N,ISOP $                     

       7  EQUIV    MPTA,MPT/ISOP $                                                

       8  PLTTRAN  BGPDT,HSIL/BGPDP,HSIP/HLUSET/S,N,HLUSEP $                      

       9  GP2      GEOM2,EQEXIN/ECT $                                             

      10  PARAML   PCDB//*PRES*////JUMPPLOT $                                     

      11  PURGE    PLTSETX,PLTPAR,GPSETS,ELSETS/JUMPPLOT $                        

      12  COND     HP1,JUMPPLOT $                                                 

      13  PLTSET   PCDB,EQEXIN,ECT,EPT/PLTSETX,PLTPAR,GPSETS,ELSETS/S,N,HNSIL/    
                   S,N,JUMPPLOT $                                                 

      14  PRTMSG   PLTSETX// $                                                    

      15  PARAM    //*MPY*/PLTFLG/1/1 $                                           

      16  PARAM    //*MPY*/PFILE/0/0 $                                            

      17  COND     HP1,JUMPPLOT $                                                 

      18  PLOT     PLTPAR,GPSETS,ELSETS,CASECC,BGPDT,EQEXIN,HSIL,,ECT,,,,/PLOTX1/ 
                   HNSIL/HLUSET/S,N,JUMPPLOT/S,N,PLTFLG/S,N,PFILE $               

      19  PRTMSG   PLOTX1// $                                                     

      20  LABEL    HP1 $                                                          
1     ELECTRIC AND MAGNETOSTATICS PROBLEM USING 2-D ELEMENTS                /    95 SUN SOLARIS NASTRAN    / MAY 17, 95 / PAGE    10
      NASTRAN TEST PROBLEM NO. T01-19-1A                                                                                            

                                                                                                                                    

          COSMIC / NASTRAN DMAP COMPILER - SOURCE LISTING                                                                           
                                                                                                                                    
                                                                                                                                    

      21  GP3      GEOM3,EQEXIN,GEOM2/HSLT,GPTT/NOGRAV $                          

      22  TA1      ECT,EPT,BGPDT,HSIL,GPTT,CSTM,,EQEXIN/HEST,HGEI,HGPECT,,,,,/    
                   HLUSET/S,N,NOSIMP/1/S,N,NOGENL/GENEL $                         

      23  PARAM    //*AND*/NOELMT/NOGENL/NOSIMP $                                 

      24  COND     ERROR4,NOELMT $                                                

      25  PURGE    HKGGX/NOSIMP $                                                 

      26  COND     HLBL1,NOSIMP $                                                 

      27  PARAM    //*ADD*/HNOKGG/1/0 $                                           

      28  EMG      HEST,CSTM,MPT,DIT,GEOM2,/HKELM,HKDICT,,,,,/S,N,HNOKGG $        

      29  PURGE    HKGGX/HNOKGG $                                                 

      30  COND     HLBL1,HNOKGG $                                                 

      31  EMA      HGPECT,HKDICT,HKELM/HKGGX $                                    

      32  PURGE    HKDICT,HKELM/MINUS1 $                                          

      33  LABEL    HLBL1 $                                                        

      34  EQUIV    HKGGX,HKGG/NOGENL $                                            

      35  COND     HLBL11A,NOGENL $                                               

      36  SMA3     HGEI,HKGGX/HKGG/HLUSET/NOGENL/NOSIMP $                         

      37  LABEL    HLBL11A $                                                      

      38  GPSTGEN  HKGG,HSIL/GPST $                                               

      39  PARAM    //*MPY*/NSKIP/0/0 $                                            

      40  LABEL    HLBL11 $                                                       

      41  GP4      CASECC,GEOM4,EQEXIN,GPDT,BGPDT,CSTM,GPST/RG,YS,HUSET,          
                   HASET,OGPST/HLUSET/S,N,MPCF1/S,N,MPCF2/S,N,SINGLE/S,N,OMIT/    
                   S,N,REACT/S,N,NSKIP/S,N,HREPEAT/S,N,NOSET/S,N,NOL/S,N,NOA/     
                   C,Y,ASETOUT/C,Y,AUTOSPC $                                      
1     ELECTRIC AND MAGNETOSTATICS PROBLEM USING 2-D ELEMENTS                /    95 SUN SOLARIS NASTRAN    / MAY 17, 95 / PAGE    11
      NASTRAN TEST PROBLEM NO. T01-19-1A                                                                                            

                                                                                                                                    

          COSMIC / NASTRAN DMAP COMPILER - SOURCE LISTING                                                                           
                                                                                                                                    
                                                                                                                                    

      42  OFP      OGPST,,,,,//S,N,CARDNO $                                       

      43  COND     ERROR3,NOL $                                                   

      44  PARAM    //*AND*/NOSR/SINGLE/REACT $                                    

      45  PURGE    HKRR,HKLR,HQR,HDM/REACT/GM/MPCF1/HGO,HKOO,HLOO,HPO,HUOOV,      
                   HRUOV/OMIT/HPS,HKFS,HKSS/SINGLE/HQG/NOSR $                     

      46  EQUIV    HKGG,HKNN/MPCF1 $                                              

      47  COND     HLBL2,MPCF1 $                                                  

      48  MCE1     HUSET,RG/GM $                                                  

      49  MCE2     HUSET,GM,HKGG,,,/HKNN,,, $                                     

      50  LABEL    HLBL2 $                                                        

      51  EQUIV    HKNN,HKFF/SINGLE $                                             

      52  COND     HLBL3,SINGLE $                                                 

      53  SCE1     HUSET,HKNN,,,/HKFF,HKFS,HKSS,,, $                              

      54  LABEL    HLBL3 $                                                        

      55  EQUIV    HKFF,HKAA/OMIT $                                               

      56  COND     HLBL5,OMIT $                                                   

      57  SMP1     HUSET,HKFF,,,/HGO,HKAA,HKOO,HLOO,,,,, $                        

      58  LABEL    HLBL5 $                                                        

      59  EQUIV    HKAA,HKLL/REACT $                                              

      60  COND     HLBL6,REACT $                                                  

      61  RBMG1    HUSET,HKAA,/HKLL,HKLR,HKRR,,, $                                

      62  LABEL    HLBL6 $                                                        

      63  RBMG2    HKLL/HLLL $                                                    

      64  COND     HLBL7,REACT $                                                  
1     ELECTRIC AND MAGNETOSTATICS PROBLEM USING 2-D ELEMENTS                /    95 SUN SOLARIS NASTRAN    / MAY 17, 95 / PAGE    12
      NASTRAN TEST PROBLEM NO. T01-19-1A                                                                                            

                                                                                                                                    

          COSMIC / NASTRAN DMAP COMPILER - SOURCE LISTING                                                                           
                                                                                                                                    
                                                                                                                                    

      65  RBMG3    HLLL,HKLR,HKRR/HDM $                                           

      66  LABEL    HLBL7 $                                                        

      67  MAGBDY  GEOM1,HEQEXIN/PER/S,N,IPG $                                     

      67  SSG1    HSLT,BGPDT,CSTM,HSIL,HEST,MPT,GPTT,EDT,,CASECC,DIT,PER/         
                  HPG,HCFLD,REMFLD,HCCEN,NSLT/HLUSET/NSKIP $                      

      68  EQUIV    HPG,HPL/NOSET $                                                

      69  COND     HLBL10,NOSET $                                                 

      70  SSG2     HUSET,GM,YS,HKFS,HGO,HDM,HPG/HQR,HPO,HPS,HPL $                 

      71  LABEL    HLBL10 $                                                       

      72  SSG3     HLLL,HKLL,HPL,HLOO,HKOO,HPO/HULV,HUOOV,HRULV,HRUOV/OMIT/       
                   V,Y,IRES=-1/NSKIP/S,N,EPSI $                                   

      73  COND     HLBL9,IRES $                                                   

      74  MATGPR   GPL,HUSET,HSIL,HRULV//*L* $                                    

      75  MATGPR   GPL,HUSET,HSIL,HRUOV//*O* $                                    

      76  LABEL    HLBL9 $                                                        

      77  SDR1     HUSET,HPG,HULV,HUOOV,YS,HGO,GM,HPS,HKFS,HKSS,HQR/HUGV,HPGG,    
                   HQG/NSKIP/*HSTATICS* $                                         

      77  SDR1,   ,HCFLD,,,,,,,,, /,HCFLDG,/V,N,NSKIP/C,N,STATICS $               

      77  SDR1,   ,HCCEN,,,,,,,,, /,HCCENG,/V,N,NSKIP/C,N,STATICS $               

      77  SDR1,   ,REMFLD,,,,,,,,,/,REMFLG,/V,N,NSKIP/C,N,STATICS $               

      78  COND     HLBL8,HREPEAT $                                                

      79  REPT     HLBL11,100 $                                                   

      80  JUMP     ERROR1 $                                                       

      81  PARAM    //*NOT*/HTEST/HREPEAT $                                        

      82  COND     ERROR2,HTEST $                                                 
1     ELECTRIC AND MAGNETOSTATICS PROBLEM USING 2-D ELEMENTS                /    95 SUN SOLARIS NASTRAN    / MAY 17, 95 / PAGE    13
      NASTRAN TEST PROBLEM NO. T01-19-1A                                                                                            

                                                                                                                                    

          COSMIC / NASTRAN DMAP COMPILER - SOURCE LISTING                                                                           
                                                                                                                                    
                                                                                                                                    

      83  LABEL    HLBL8 $                                                        

      84  SDR2     CASECC,CSTM,MPT,DIT,EQEXIN,HSIL,GPTT,EDT,BGPDP,,HQG,HUGV,      
                   HEST,,HPGG,/HOPG1,HOQG1,HOUGV1,HOES1,HOEF1,HPUGV1,,/           
                   *STATICS* $                                                    

      84  EMFLD   HOEF1,HEST,CASECC,HCFLDG,MPT,DIT,REMFLG,GEOM1,CSTM,             
                  HCCENG/HOEH1/V,N,HLUSET $                                       

      85  OFP      HOUGV1,HOPG1,HOQG1,HOEF1,,//S,N,CARDNO $                       

      85  OFP     HOEH1,,,,,//S,N,CARDNO $                                        

      85  PROLATE GEOM1,HEQEXIN,BGPDT,CASECC,NSLT,HUGV,REMFLG,HEST,MPT,DIT/PROCOF$

      85  OUTPUT2 PROCOF,,,,//0/11 $                                              

      85  TABPT   PROCOF,,,,// $                                                  

      86  COND     HP2,JUMPPLOT $                                                 

      87  PLOT     PLTPAR,GPSETS,ELSETS,CASECC,BGPDT,EQEXIN,HSIP,HPUGV1,HOES1,    
                   HGPECT,,,/PLOTX2/HNSIL/HLUSEP/JUMPPLOT/PLTFLG/                 
                   S,N,PFILE $                                                    

      88  PRTMSG   PLOTX2// $                                                     

      89  LABEL    HP2 $                                                          

      90  JUMP     FINIS $                                                        

      91  LABEL    ERROR1 $                                                       

      92  PRTPARM  //-1/*HSTA* $                                                  

      93  LABEL    ERROR2 $                                                       

      94  PRTPARM  //-2/*HSTA* $                                                  

      95  LABEL    ERROR3 $                                                       

      96  PRTPARM  //-3/*HSTA* $                                                  

      97  LABEL    ERROR4 $                                                       

      98  PRTPARM  //-4/*HSTA* $                                                  
1     ELECTRIC AND MAGNETOSTATICS PROBLEM USING 2-D ELEMENTS                /    95 SUN SOLARIS NASTRAN    / MAY 17, 95 / PAGE    14
      NASTRAN TEST PROBLEM NO. T01-19-1A                                                                                            

                                                                                                                                    

          COSMIC / NASTRAN DMAP COMPILER - SOURCE LISTING                                                                           
                                                                                                                                    
                                                                                                                                    

      99  LABEL    FINIS $                                                        

     100  PURGE    DUMMY/MINUS1 $                                                 

     101  END      $                                                              
1     ELECTRIC AND MAGNETOSTATICS PROBLEM USING 2-D ELEMENTS                /    95 SUN SOLARIS NASTRAN    / MAY 17, 95 / PAGE    15
      NASTRAN TEST PROBLEM NO. T01-19-1A                                                                                            
0                                                                                                                                   
0                                                                                                                                   
                                                                                                                                    
                                                                                                                                    

 *** USER POTENTIALLY FATAL MESSAGE  22,
                              POSSIBLE ERROR IN DMAP INSTRUCTION MAGBDY     INSTRUCTION NO.  67
     DATA BLOCK NAMED HEQEXIN  APPEARS AS INPUT BEFORE BEING DEFINED
1     ELECTRIC AND MAGNETOSTATICS PROBLEM USING 2-D ELEMENTS                /    95 SUN SOLARIS NASTRAN    / MAY 17, 95 / PAGE    16
      NASTRAN TEST PROBLEM NO. T01-19-1A                                                                                            
0                                                                                                                                   
0*** USER INFORMATION MESSAGES FROM RESEQUENCING PROCESSOR - BANDIT     (CRI= 1,  MTH= 3,  MPC= 0,  DEP=-1,  PCH=-1)

                               BEFORE RESEQUENCING - - -
                                        BANDWIDTH            8
                                        PROFILE            100
                                        MAX WAVEFRONT        8
                                        AVG WAVEFRONT    2.778
                                        RMS WAVEFRONT    3.249
                                        RMS BANDWIDTH    3.249

                               AFTER RESEQUENCING BY GIBBS-POOLE-STOCKMEYER (GPS) ALGORITHM - - -
                                        BANDWIDTH            8
                                        PROFILE            100
                                        MAX WAVEFRONT        8
                                        AVG WAVEFRONT    2.778
                                        RMS WAVEFRONT    3.249
                                        RMS BANDWIDTH    3.249


                                                     *** BANDIT SUMMARY ***

                                                                        BEFORE     AFTER
                                        BANDWIDTH (B)                        8         8
                                        PROFILE (P)                        100       100
                                        MAXIMUM WAVEFRONT (C-MAX)            8         8
                                        AVERAGE WAVEFRONT (C-AVG)        2.778     2.778
                                        RMS WAVEFRONT (C-RMS)            3.249     3.249
                                        RMS BANDWITCH (B-RMS)            3.249     3.249
                                        NUMBER OF GRID POINTS (N)                     36
                                        NUMBER OF ELEMENTS (NON-RIGID)                 9
                                        NUMBER OF RIGID ELEMENTS PROCESSED*            0
                                        NUMBER OF MPC  EQUATIONS PROCESSED*            0
                                        NUMBER OF COMPONENTS                           9
                                        MAXIMUM NODAL DEGREE                           7
                                        MINIMUM NODAL DEGREE                           2
                                        NUMBER OF UNIQUE EDGES                        64
                                        MATRIX DENSITY, PERCENT                   12.654
                                        NUMBER OF POINTS OF ZERO DEGREE                0
                                        BANDIT OPEN CORE                         1998969
                                        CRITERION*                         RMS WAVEFRONT
                                        METHOD USED*                                 GPS

                               (* THESE DEFAULT OPTIONS CAN BE OVERRIDDEN BY THE NASTRAN CARD)


                               BANDIT FINDS GRID POINT RE-SEQUENCING NOT NECESSARY
0         **NO ERRORS FOUND - EXECUTE NASTRAN PROGRAM**
0*** SYSTEM WARNING MESSAGE 3022
+                                 (SEE PROG. MANUAL SEC. 4.9.7, OR USERS' MANUAL P. 6.5-3)
     DATA BLOCK HEQEXIN  MAY BE REQUIRED AS INPUT AND IS NOT OUTPUT BY A PREVIOUS MODULE IN THE CURRENT DMAP ROUTE.
0*** USER INFORMATION MESSAGE 238, TURN DIAG 38 ON FOR ADDITIONAL ELEMENT PROCESSING INFORMATION

0*** USER INFORMATION MESSAGE 3113,
     EMG MODULE PROCESSING DOUBLE PRECISION IS2D8    ELEMENTS (ELEMENT TYPE  80) STARTING WITH ID      100
0*** USER INFORMATION MESSAGE 3113,
     EMG MODULE PROCESSING DOUBLE PRECISION QDMEM    ELEMENTS (ELEMENT TYPE  16) STARTING WITH ID        1
0*** USER INFORMATION MESSAGE 3113,
     EMG MODULE PROCESSING DOUBLE PRECISION QUAD1    ELEMENTS (ELEMENT TYPE  19) STARTING WITH ID        2
0*** USER INFORMATION MESSAGE 3113,
     EMG MODULE PROCESSING DOUBLE PRECISION QUAD2    ELEMENTS (ELEMENT TYPE  18) STARTING WITH ID        4
0*** USER INFORMATION MESSAGE 3113,
     EMG MODULE PROCESSING DOUBLE PRECISION TRIA1    ELEMENTS (ELEMENT TYPE   6) STARTING WITH ID        5
0*** USER INFORMATION MESSAGE 3113,
     EMG MODULE PROCESSING DOUBLE PRECISION TRIA2    ELEMENTS (ELEMENT TYPE  17) STARTING WITH ID        6
0*** USER INFORMATION MESSAGE 3113,
     EMG MODULE PROCESSING DOUBLE PRECISION TRMEM    ELEMENTS (ELEMENT TYPE   9) STARTING WITH ID        8
0*** SYSTEM WARNING MESSAGE 3022
+                                 (SEE PROG. MANUAL SEC. 4.9.7, OR USERS' MANUAL P. 6.5-3)
     DATA BLOCK HEQEXIN  MAY BE REQUIRED AS INPUT AND IS NOT OUTPUT BY A PREVIOUS MODULE IN THE CURRENT DMAP ROUTE.
0*** SYSTEM WARNING MESSAGE 2363, SSG2B FORCED MPYAD COMPATIBILITY OF MATRIX ON  103, FROM (    9,    1), TO (    9,    7)
0*** USER INFORMATION MESSAGE 3035
     FOR SUBCASE NUMBER     1, EPSILON SUB E =  -2.1190513E-16
0*** USER INFORMATION MESSAGE 3035
     FOR SUBCASE NUMBER     2, EPSILON SUB E =  -4.0494909E-16
0*** USER INFORMATION MESSAGE 3035
     FOR SUBCASE NUMBER     3, EPSILON SUB E =  -3.5833078E-16
0*** USER INFORMATION MESSAGE 3035
     FOR SUBCASE NUMBER     4, EPSILON SUB E =  -4.3837492E-17
0*** USER INFORMATION MESSAGE 3035
     FOR SUBCASE NUMBER     5, EPSILON SUB E =   4.5067096E-17
0*** USER INFORMATION MESSAGE 3035
     FOR SUBCASE NUMBER     6, EPSILON SUB E =   7.1159569E-17
0*** USER INFORMATION MESSAGE 3035
     FOR SUBCASE NUMBER     7, EPSILON SUB E =  -4.0974073E-16
0*** SYSTEM WARNING MESSAGE 3022
+                                 (SEE PROG. MANUAL SEC. 4.9.7, OR USERS' MANUAL P. 6.5-3)
     DATA BLOCK HEQEXIN  MAY BE REQUIRED AS INPUT AND IS NOT OUTPUT BY A PREVIOUS MODULE IN THE CURRENT DMAP ROUTE.
1     ELECTRIC AND MAGNETOSTATICS PROBLEM USING 2-D ELEMENTS                /    95 SUN SOLARIS NASTRAN    / MAY 17, 95 / PAGE    17
      NASTRAN TEST PROBLEM NO. T01-19-1A                                                                                            
0                                                                                                            SUBCASE 1              
 
                                              T E M P E R A T U R E   V E C T O R
 
      POINT ID.   TYPE      ID   VALUE     ID+1 VALUE    ID+2 VALUE     ID+3 VALUE     ID+4 VALUE     ID+5 VALUE
             1      S      0.0           -1.602771E+02  -1.568052E+02   0.0           -1.602771E+02  -1.568052E+02                  
             7      S      0.0           -1.602771E+02  -1.568052E+02   0.0           -1.803118E+02  -2.643118E+02                  
            13      S     -8.400000E+01   0.0           -1.803118E+02  -2.643118E+02  -8.400000E+01   0.0                           
            19      S     -1.803118E+02  -2.643118E+02  -8.400000E+01   0.0           -1.803118E+02  -2.643118E+02                  
            25      S     -8.400000E+01   0.0           -1.602771E+02  -1.568052E+02                                                
           110      S      0.0           -1.803118E+02  -2.643117E+02  -8.399998E+01                                                
           210      S     -9.015587E+01  -2.223118E+02  -1.741559E+02  -4.199999E+01                                                
1     ELECTRIC AND MAGNETOSTATICS PROBLEM USING 2-D ELEMENTS                /    95 SUN SOLARIS NASTRAN    / MAY 17, 95 / PAGE    18
      NASTRAN TEST PROBLEM NO. T01-19-1A                                                                                            
0                                                                                                            SUBCASE 2              
 
                                              T E M P E R A T U R E   V E C T O R
 
      POINT ID.   TYPE      ID   VALUE     ID+1 VALUE    ID+2 VALUE     ID+3 VALUE     ID+4 VALUE     ID+5 VALUE
             1      S      0.0           -1.602771E+02  -1.568052E+02   0.0           -1.602771E+02  -1.568052E+02                  
             7      S      0.0           -1.602771E+02  -1.568052E+02   0.0           -1.760382E+02  -2.643118E+02                  
            13      S     -7.972639E+01   0.0           -1.760382E+02  -2.643118E+02  -7.972639E+01   0.0                           
            19      S     -1.760382E+02  -2.643118E+02  -7.972639E+01   0.0           -1.760382E+02  -2.643118E+02                  
            25      S     -7.972639E+01   0.0           -1.602771E+02  -1.568052E+02                                                
           110      S      0.0           -1.671576E+02  -2.580859E+02  -6.528661E+01                                                
           210      S     -7.473998E+01  -2.073717E+02  -1.616862E+02  -2.689331E+01                                                
1     ELECTRIC AND MAGNETOSTATICS PROBLEM USING 2-D ELEMENTS                /    95 SUN SOLARIS NASTRAN    / MAY 17, 95 / PAGE    19
      NASTRAN TEST PROBLEM NO. T01-19-1A                                                                                            
0                                                                                                            SUBCASE 3              
 
                                              T E M P E R A T U R E   V E C T O R
 
      POINT ID.   TYPE      ID   VALUE     ID+1 VALUE    ID+2 VALUE     ID+3 VALUE     ID+4 VALUE     ID+5 VALUE
             1      S      0.0           -3.205542E+02  -3.136104E+02   0.0           -3.205542E+02  -3.136104E+02                  
             7      S      0.0           -3.205543E+02  -3.136104E+02   0.0           -3.563499E+02  -5.286235E+02                  
            13      S     -1.637264E+02   0.0           -3.563499E+02  -5.286235E+02  -1.637264E+02   0.0                           
            19      S     -3.563499E+02  -5.286235E+02  -1.637264E+02   0.0           -3.563499E+02  -5.286235E+02                  
            25      S     -1.637264E+02   0.0           -3.205543E+02  -3.136104E+02                                                
           110      S      0.0           -3.474694E+02  -5.223976E+02  -1.492866E+02                                                
           210      S     -1.648958E+02  -4.296835E+02  -3.358421E+02  -6.889330E+01                                                
1     ELECTRIC AND MAGNETOSTATICS PROBLEM USING 2-D ELEMENTS                /    95 SUN SOLARIS NASTRAN    / MAY 17, 95 / PAGE    20
      NASTRAN TEST PROBLEM NO. T01-19-1A                                                                                            
0                                                                                                            SUBCOM  4              
 
                                              T E M P E R A T U R E   V E C T O R
 
      POINT ID.   TYPE      ID   VALUE     ID+1 VALUE    ID+2 VALUE     ID+3 VALUE     ID+4 VALUE     ID+5 VALUE
             1      S      0.0           -1.602771E+02  -1.568052E+02   0.0           -1.602771E+02  -1.568052E+02                  
             7      S      0.0           -1.602771E+02  -1.568052E+02   0.0           -1.781750E+02  -2.643118E+02                  
            13      S     -8.186319E+01   0.0           -1.781750E+02  -2.643118E+02  -8.186319E+01   0.0                           
            19      S     -1.781750E+02  -2.643118E+02  -8.186319E+01   0.0           -1.781750E+02  -2.643118E+02                  
            25      S     -8.186319E+01   0.0           -1.602771E+02  -1.568052E+02                                                
           110      S      0.0           -1.737347E+02  -2.611988E+02  -7.464330E+01                                                
           210      S     -8.244792E+01  -2.148418E+02  -1.679211E+02  -3.444665E+01                                                
1     ELECTRIC AND MAGNETOSTATICS PROBLEM USING 2-D ELEMENTS                /    95 SUN SOLARIS NASTRAN    / MAY 17, 95 / PAGE    21
      NASTRAN TEST PROBLEM NO. T01-19-1A                                                                                            
0                                                                                                            SUBCASE 5              
 
                                              T E M P E R A T U R E   V E C T O R
 
      POINT ID.   TYPE      ID   VALUE     ID+1 VALUE    ID+2 VALUE     ID+3 VALUE     ID+4 VALUE     ID+5 VALUE
             1      S      0.0           -2.876360E-01  -1.594546E+00   0.0           -2.876360E-01  -1.594546E+00                  
             7      S      0.0           -2.876360E-01  -1.594545E+00   0.0           -3.880714E-01  -1.767931E+00                  
            13      S     -1.256972E+00   0.0           -3.880714E-01  -1.767931E+00  -1.256972E+00   0.0                           
            19      S     -3.880714E-01  -1.767931E+00  -1.256972E+00   0.0           -3.880714E-01  -1.767931E+00                  
            25      S     -1.256972E+00   0.0           -2.876360E-01  -1.594545E+00                                                
           110      S      0.0           -8.759369E-02  -1.690579E+00  -1.217009E+00                                                
           210      S      8.366556E-02  -1.126326E+00  -1.206402E+00  -6.304914E-01                                                
1     ELECTRIC AND MAGNETOSTATICS PROBLEM USING 2-D ELEMENTS                /    95 SUN SOLARIS NASTRAN    / MAY 17, 95 / PAGE    22
      NASTRAN TEST PROBLEM NO. T01-19-1A                                                                                            
0                                                                                                            SUBCASE 6              
 
                                              T E M P E R A T U R E   V E C T O R
 
      POINT ID.   TYPE      ID   VALUE     ID+1 VALUE    ID+2 VALUE     ID+3 VALUE     ID+4 VALUE     ID+5 VALUE
             1      S      0.0           -2.846147E-01  -1.587854E+00   0.0           -2.846147E-01  -1.587854E+00                  
             7      S      0.0           -2.846147E-01  -1.587854E+00   0.0           -3.840474E-01  -1.760479E+00                  
            13      S     -1.253651E+00   0.0           -3.840472E-01  -1.760478E+00  -1.253651E+00   0.0                           
            19      S     -3.840474E-01  -1.760479E+00  -1.253651E+00   0.0           -3.840474E-01  -1.760479E+00                  
            25      S     -1.253651E+00   0.0           -2.846147E-01  -1.587854E+00                                                
           110      S      0.0           -8.631366E-02  -1.685932E+00  -1.214901E+00                                                
           210      S      8.181333E-02  -1.120497E+00  -1.203998E+00  -6.294569E-01                                                
1     ELECTRIC AND MAGNETOSTATICS PROBLEM USING 2-D ELEMENTS                /    95 SUN SOLARIS NASTRAN    / MAY 17, 95 / PAGE    23
      NASTRAN TEST PROBLEM NO. T01-19-1A                                                                                            
0                                                                                                            SUBCASE 7              
 
                                              T E M P E R A T U R E   V E C T O R
 
      POINT ID.   TYPE      ID   VALUE     ID+1 VALUE    ID+2 VALUE     ID+3 VALUE     ID+4 VALUE     ID+5 VALUE
             1      S      0.0            5.141344E-02   5.421922E-02   0.0            5.141344E-02   5.421922E-02                  
             7      S      0.0            5.141344E-02   5.421921E-02   0.0            4.809584E-02   7.312070E-02                  
            13      S      2.341378E-02   0.0            4.809583E-02   7.312069E-02   2.341378E-02   0.0                           
            19      S      4.809584E-02   7.312070E-02   2.341378E-02   0.0            4.809584E-02   7.312070E-02                  
            25      S      2.341378E-02   0.0            5.141344E-02   5.421922E-02                                                
           110      S      0.0            4.194599E-02   6.114474E-02   1.281794E-02                                                
           210      S     -2.405571E-03   5.656438E-02   2.613910E-02   4.891117E-03                                                
1     ELECTRIC AND MAGNETOSTATICS PROBLEM USING 2-D ELEMENTS                /    95 SUN SOLARIS NASTRAN    / MAY 17, 95 / PAGE    24
      NASTRAN TEST PROBLEM NO. T01-19-1A                                                                                            
0                                                                                                            SUBCASE 100            
 
                                              T E M P E R A T U R E   V E C T O R
 
      POINT ID.   TYPE      ID   VALUE     ID+1 VALUE    ID+2 VALUE     ID+3 VALUE     ID+4 VALUE     ID+5 VALUE
             1      S      0.0            0.0            0.0            0.0            0.0            0.0                           
             7      S      0.0            0.0            0.0            0.0           -8.485258E+01  -1.448526E+02                  
            13      S     -5.999999E+01   0.0            0.0            0.0            0.0            0.0                           
            19      S      0.0            0.0            0.0            0.0            0.0            0.0                           
            25      S      0.0            0.0            0.0            0.0                                                         
           110      S      0.0           -8.485259E+01  -1.448526E+02  -5.999996E+01                                                
           210      S     -4.242628E+01  -1.148526E+02  -1.024263E+02  -2.999998E+01                                                
1     ELECTRIC AND MAGNETOSTATICS PROBLEM USING 2-D ELEMENTS                /    95 SUN SOLARIS NASTRAN    / MAY 17, 95 / PAGE    25
      NASTRAN TEST PROBLEM NO. T01-19-1A                                                                                            
0                                                                                                            SUBCASE 1              
 
                                                     L O A D   V E C T O R
 
      POINT ID.   TYPE      ID   VALUE     ID+1 VALUE    ID+2 VALUE     ID+3 VALUE     ID+4 VALUE     ID+5 VALUE
             1      S      3.920131E+04  -8.680720E+02  -3.833323E+04   3.920131E+04  -8.680720E+02  -3.833323E+04                  
             7      S      3.920130E+04  -8.680740E+02  -3.833323E+04   6.453892E+04   1.946086E+04  -6.453893E+04                  
            13      S     -1.946086E+04   6.453892E+04   1.946086E+04  -6.453892E+04  -1.946086E+04   6.453892E+04                  
            19      S      1.946086E+04  -6.453893E+04  -1.946086E+04   6.453893E+04   1.946086E+04  -6.453892E+04                  
            25      S     -1.946086E+04   3.920130E+04  -8.680740E+02  -3.833323E+04                                                
           110      S      2.151297E+04   6.486952E+03  -2.151297E+04  -6.486957E+03                                                
           210      S      5.599986E+04  -3.005203E+04  -5.599986E+04   3.005204E+04                                                
1     ELECTRIC AND MAGNETOSTATICS PROBLEM USING 2-D ELEMENTS                /    95 SUN SOLARIS NASTRAN    / MAY 17, 95 / PAGE    26
      NASTRAN TEST PROBLEM NO. T01-19-1A                                                                                            
0                                                                                                            SUBCASE 2              
 
                                                     L O A D   V E C T O R
 
      POINT ID.   TYPE      ID   VALUE     ID+1 VALUE    ID+2 VALUE     ID+3 VALUE     ID+4 VALUE     ID+5 VALUE
             1      S      3.920130E+04  -8.680739E+02  -3.833323E+04   3.920130E+04  -8.680739E+02  -3.833323E+04                  
             7      S      3.920130E+04  -8.680759E+02  -3.833323E+04   6.186792E+04   2.213186E+04  -6.720992E+04                  
            13      S     -1.678986E+04   6.186792E+04   2.213186E+04  -6.720992E+04  -1.678986E+04   6.186792E+04                  
            19      S      2.213186E+04  -6.720992E+04  -1.678986E+04   6.186792E+04   2.213186E+04  -6.720992E+04                  
            25      S     -1.678986E+04   3.920130E+04  -8.680759E+02  -3.833323E+04                                                
           110      S      9.433347E+03  -2.843848E+01  -3.238828E+04  -1.224247E+04                                                
           210      S      5.992823E+04  -1.560762E+04  -5.403566E+04   4.494089E+04                                                
1     ELECTRIC AND MAGNETOSTATICS PROBLEM USING 2-D ELEMENTS                /    95 SUN SOLARIS NASTRAN    / MAY 17, 95 / PAGE    27
      NASTRAN TEST PROBLEM NO. T01-19-1A                                                                                            
0                                                                                                            SUBCASE 3              
 
                                                     L O A D   V E C T O R
 
      POINT ID.   TYPE      ID   VALUE     ID+1 VALUE    ID+2 VALUE     ID+3 VALUE     ID+4 VALUE     ID+5 VALUE
             1      S      7.840261E+04  -1.736146E+03  -7.666647E+04   7.840261E+04  -1.736146E+03  -7.666647E+04                  
             7      S      7.840261E+04  -1.736150E+03  -7.666647E+04   1.264068E+05   4.159273E+04  -1.317488E+05                  
            13      S     -3.625073E+04   1.264068E+05   4.159273E+04  -1.317488E+05  -3.625072E+04   1.264068E+05                  
            19      S      4.159273E+04  -1.317488E+05  -3.625073E+04   1.264068E+05   4.159273E+04  -1.317488E+05                  
            25      S     -3.625072E+04   7.840261E+04  -1.736150E+03  -7.666647E+04                                                
           110      S      3.094631E+04   6.458514E+03  -5.390125E+04  -1.872943E+04                                                
           210      S      1.159281E+05  -4.565966E+04  -1.100355E+05   7.499293E+04                                                
1     ELECTRIC AND MAGNETOSTATICS PROBLEM USING 2-D ELEMENTS                /    95 SUN SOLARIS NASTRAN    / MAY 17, 95 / PAGE    28
      NASTRAN TEST PROBLEM NO. T01-19-1A                                                                                            
0                                                                                                            SUBCOM  4              
 
                                                     L O A D   V E C T O R
 
      POINT ID.   TYPE      ID   VALUE     ID+1 VALUE    ID+2 VALUE     ID+3 VALUE     ID+4 VALUE     ID+5 VALUE
             1      S      3.920130E+04  -8.680729E+02  -3.833323E+04   3.920130E+04  -8.680729E+02  -3.833323E+04                  
             7      S      3.920130E+04  -8.680750E+02  -3.833323E+04   6.320342E+04   2.079636E+04  -6.587442E+04                  
            13      S     -1.812536E+04   6.320342E+04   2.079636E+04  -6.587442E+04  -1.812536E+04   6.320342E+04                  
            19      S      2.079636E+04  -6.587442E+04  -1.812536E+04   6.320342E+04   2.079636E+04  -6.587442E+04                  
            25      S     -1.812536E+04   3.920130E+04  -8.680750E+02  -3.833323E+04                                                
           110      S      1.547316E+04   3.229257E+03  -2.695062E+04  -9.364715E+03                                                
           210      S      5.796404E+04  -2.282983E+04  -5.501776E+04   3.749646E+04                                                
1     ELECTRIC AND MAGNETOSTATICS PROBLEM USING 2-D ELEMENTS                /    95 SUN SOLARIS NASTRAN    / MAY 17, 95 / PAGE    29
      NASTRAN TEST PROBLEM NO. T01-19-1A                                                                                            
0                                                                                                            SUBCASE 5              
 
                                                     L O A D   V E C T O R
 
      POINT ID.   TYPE      ID   VALUE     ID+1 VALUE    ID+2 VALUE     ID+3 VALUE     ID+4 VALUE     ID+5 VALUE
             1      S      3.986356E+02   3.267264E+02  -7.253619E+02   3.986356E+02   3.267264E+02  -7.253619E+02                  
             7      S      3.986355E+02   3.267263E+02  -7.253619E+02   6.769934E+02   6.414192E+02  -7.537983E+02                  
            13      S     -5.646143E+02   6.769934E+02   6.414192E+02  -7.537983E+02  -5.646143E+02   6.769934E+02                  
            19      S      6.414192E+02  -7.537983E+02  -5.646143E+02   6.769934E+02   6.414192E+02  -7.537983E+02                  
            25      S     -5.646142E+02   3.986355E+02   3.267263E+02  -7.253619E+02                                                
           110      S      2.683082E+02   4.090473E+02  -1.280367E+02  -1.079526E+02                                                
           210      S      9.983201E+02  -5.119836E+02  -7.484164E+02  -1.792863E+02                                                
1     ELECTRIC AND MAGNETOSTATICS PROBLEM USING 2-D ELEMENTS                /    95 SUN SOLARIS NASTRAN    / MAY 17, 95 / PAGE    30
      NASTRAN TEST PROBLEM NO. T01-19-1A                                                                                            
0                                                                                                            SUBCASE 6              
 
                                                     L O A D   V E C T O R
 
      POINT ID.   TYPE      ID   VALUE     ID+1 VALUE    ID+2 VALUE     ID+3 VALUE     ID+4 VALUE     ID+5 VALUE
             1      S      3.969626E+02   3.258087E+02  -7.227713E+02   3.969626E+02   3.258087E+02  -7.227713E+02                  
             7      S      3.969626E+02   3.258087E+02  -7.227712E+02   6.748302E+02   6.402078E+02  -7.515674E+02                  
            13      S     -5.634706E+02   6.748301E+02   6.402078E+02  -7.515674E+02  -5.634706E+02   6.748302E+02                  
            19      S      6.402078E+02  -7.515674E+02  -5.634706E+02   6.748301E+02   6.402078E+02  -7.515674E+02                  
            25      S     -5.634706E+02   3.969626E+02   3.258087E+02  -7.227712E+02                                                
           110      S      2.670606E+02   4.065747E+02  -1.291658E+02  -1.083812E+02                                                
           210      S      9.944961E+02  -5.062684E+02  -7.469031E+02  -1.774130E+02                                                
1     ELECTRIC AND MAGNETOSTATICS PROBLEM USING 2-D ELEMENTS                /    95 SUN SOLARIS NASTRAN    / MAY 17, 95 / PAGE    31
      NASTRAN TEST PROBLEM NO. T01-19-1A                                                                                            
0                                                                                                            SUBCASE 7              
 
                                                     L O A D   V E C T O R
 
      POINT ID.   TYPE      ID   VALUE     ID+1 VALUE    ID+2 VALUE     ID+3 VALUE     ID+4 VALUE     ID+5 VALUE
             1      S     -1.355480E+01  -7.014089E-01   1.425621E+01  -1.355480E+01  -7.014089E-01   1.425621E+01                  
             7      S     -1.355480E+01  -7.014085E-01   1.425621E+01  -1.771886E+01  -6.500403E+00   1.872578E+01                  
            13      S      5.493482E+00  -1.771886E+01  -6.500402E+00   1.872578E+01   5.493482E+00  -1.771886E+01                  
            19      S     -6.500403E+00   1.872578E+01   5.493482E+00  -1.771886E+01  -6.500403E+00   1.872578E+01                  
            25      S      5.493481E+00  -1.355480E+01  -7.014090E-01   1.425621E+01                                                
           110      S      5.990481E-02  -5.015969E-02   8.008190E+00   5.459590E+00                                                
           210      S     -2.904379E+01   1.582254E+01   6.229857E+00  -6.486140E+00                                                
1     ELECTRIC AND MAGNETOSTATICS PROBLEM USING 2-D ELEMENTS                /    95 SUN SOLARIS NASTRAN    / MAY 17, 95 / PAGE    32
      NASTRAN TEST PROBLEM NO. T01-19-1A                                                                                            
0                                                                                                            SUBCASE 100            
 
                                                     L O A D   V E C T O R
 
      POINT ID.   TYPE      ID   VALUE     ID+1 VALUE    ID+2 VALUE     ID+3 VALUE     ID+4 VALUE     ID+5 VALUE
            10      S      4.060652E+04   1.939332E+04  -4.060652E+04  -1.939332E+04                                                
           110      S      1.353550E+04   6.464438E+03  -1.353551E+04  -6.464438E+03                                                
           210      S      3.999990E+04  -1.414214E+04  -3.999989E+04   1.414214E+04                                                
1     ELECTRIC AND MAGNETOSTATICS PROBLEM USING 2-D ELEMENTS                /    95 SUN SOLARIS NASTRAN    / MAY 17, 95 / PAGE    33
      NASTRAN TEST PROBLEM NO. T01-19-1A                                                                                            
0                                                                                                            SUBCASE 1              
 
                   F I N I T E   E L E M E N T   T E M P E R A T U R E   G R A D I E N T S   A N D   F L U X E S
 
    ELEMENT-ID   EL-TYPE        X-GRADIENT       Y-GRADIENT       Z-GRADIENT        X-FLUX           Y-FLUX           Z-FLUX
             1    QDMEM       -4.507807E+01    -4.200001E+01                      1.126952E+04     1.050000E+04
             3    QDMEM        4.200000E+01    -4.507807E+01                     -1.050000E+04     1.126952E+04
1     ELECTRIC AND MAGNETOSTATICS PROBLEM USING 2-D ELEMENTS                /    95 SUN SOLARIS NASTRAN    / MAY 17, 95 / PAGE    34
      NASTRAN TEST PROBLEM NO. T01-19-1A                                                                                            
0                                                                                                            SUBCASE 1              
 
                   F I N I T E   E L E M E N T   T E M P E R A T U R E   G R A D I E N T S   A N D   F L U X E S
 
    ELEMENT-ID   EL-TYPE        X-GRADIENT       Y-GRADIENT       Z-GRADIENT        X-FLUX           Y-FLUX           Z-FLUX
             2    QUAD1        4.507806E+01    -4.200000E+01                     -1.126952E+04     1.050000E+04
1     ELECTRIC AND MAGNETOSTATICS PROBLEM USING 2-D ELEMENTS                /    95 SUN SOLARIS NASTRAN    / MAY 17, 95 / PAGE    35
      NASTRAN TEST PROBLEM NO. T01-19-1A                                                                                            
0                                                                                                            SUBCASE 1              
 
                   F I N I T E   E L E M E N T   T E M P E R A T U R E   G R A D I E N T S   A N D   F L U X E S
 
    ELEMENT-ID   EL-TYPE        X-GRADIENT       Y-GRADIENT       Z-GRADIENT        X-FLUX           Y-FLUX           Z-FLUX
             4    QUAD2        4.507806E+01     4.200000E+01                     -1.126952E+04    -1.050000E+04
1     ELECTRIC AND MAGNETOSTATICS PROBLEM USING 2-D ELEMENTS                /    95 SUN SOLARIS NASTRAN    / MAY 17, 95 / PAGE    36
      NASTRAN TEST PROBLEM NO. T01-19-1A                                                                                            
0                                                                                                            SUBCASE 1              
 
                   F I N I T E   E L E M E N T   T E M P E R A T U R E   G R A D I E N T S   A N D   F L U X E S
 
    ELEMENT-ID   EL-TYPE        X-GRADIENT       Y-GRADIENT       Z-GRADIENT        X-FLUX           Y-FLUX           Z-FLUX
             5    TRIA1        4.006938E+01    -3.833334E+01                     -1.001735E+04     9.583335E+03
1     ELECTRIC AND MAGNETOSTATICS PROBLEM USING 2-D ELEMENTS                /    95 SUN SOLARIS NASTRAN    / MAY 17, 95 / PAGE    37
      NASTRAN TEST PROBLEM NO. T01-19-1A                                                                                            
0                                                                                                            SUBCASE 1              
 
                   F I N I T E   E L E M E N T   T E M P E R A T U R E   G R A D I E N T S   A N D   F L U X E S
 
    ELEMENT-ID   EL-TYPE        X-GRADIENT       Y-GRADIENT       Z-GRADIENT        X-FLUX           Y-FLUX           Z-FLUX
             6    TRIA2        5.543909E+01    -1.227642E+00                     -1.385977E+04     3.069105E+02
             7    TRIA2        1.227501E+00     5.543909E+01                     -3.068752E+02    -1.385977E+04
1     ELECTRIC AND MAGNETOSTATICS PROBLEM USING 2-D ELEMENTS                /    95 SUN SOLARIS NASTRAN    / MAY 17, 95 / PAGE    38
      NASTRAN TEST PROBLEM NO. T01-19-1A                                                                                            
0                                                                                                            SUBCASE 1              
 
                   F I N I T E   E L E M E N T   T E M P E R A T U R E   G R A D I E N T S   A N D   F L U X E S
 
    ELEMENT-ID   EL-TYPE        X-GRADIENT       Y-GRADIENT       Z-GRADIENT        X-FLUX           Y-FLUX           Z-FLUX
             8    TRMEM       -4.006938E+01    -3.833333E+01                      1.001735E+04     9.583333E+03
1     ELECTRIC AND MAGNETOSTATICS PROBLEM USING 2-D ELEMENTS                /    95 SUN SOLARIS NASTRAN    / MAY 17, 95 / PAGE    39
      NASTRAN TEST PROBLEM NO. T01-19-1A                                                                                            
0                                                                                                            SUBCASE 2              
 
                   F I N I T E   E L E M E N T   T E M P E R A T U R E   G R A D I E N T S   A N D   F L U X E S
 
    ELEMENT-ID   EL-TYPE        X-GRADIENT       Y-GRADIENT       Z-GRADIENT        X-FLUX           Y-FLUX           Z-FLUX
             1    QDMEM       -4.507806E+01    -4.200000E+01                      1.126951E+04     1.050000E+04
             3    QDMEM        4.200000E+01    -4.507806E+01                     -1.050000E+04     1.126952E+04
1     ELECTRIC AND MAGNETOSTATICS PROBLEM USING 2-D ELEMENTS                /    95 SUN SOLARIS NASTRAN    / MAY 17, 95 / PAGE    40
      NASTRAN TEST PROBLEM NO. T01-19-1A                                                                                            
0                                                                                                            SUBCASE 2              
 
                   F I N I T E   E L E M E N T   T E M P E R A T U R E   G R A D I E N T S   A N D   F L U X E S
 
    ELEMENT-ID   EL-TYPE        X-GRADIENT       Y-GRADIENT       Z-GRADIENT        X-FLUX           Y-FLUX           Z-FLUX
             2    QUAD1        4.507806E+01    -4.200000E+01                     -1.126952E+04     1.050000E+04
1     ELECTRIC AND MAGNETOSTATICS PROBLEM USING 2-D ELEMENTS                /    95 SUN SOLARIS NASTRAN    / MAY 17, 95 / PAGE    41
      NASTRAN TEST PROBLEM NO. T01-19-1A                                                                                            
0                                                                                                            SUBCASE 2              
 
                   F I N I T E   E L E M E N T   T E M P E R A T U R E   G R A D I E N T S   A N D   F L U X E S
 
    ELEMENT-ID   EL-TYPE        X-GRADIENT       Y-GRADIENT       Z-GRADIENT        X-FLUX           Y-FLUX           Z-FLUX
             4    QUAD2        4.507806E+01     4.200001E+01                     -1.126952E+04    -1.050000E+04
1     ELECTRIC AND MAGNETOSTATICS PROBLEM USING 2-D ELEMENTS                /    95 SUN SOLARIS NASTRAN    / MAY 17, 95 / PAGE    42
      NASTRAN TEST PROBLEM NO. T01-19-1A                                                                                            
0                                                                                                            SUBCASE 2              
 
                   F I N I T E   E L E M E N T   T E M P E R A T U R E   G R A D I E N T S   A N D   F L U X E S
 
    ELEMENT-ID   EL-TYPE        X-GRADIENT       Y-GRADIENT       Z-GRADIENT        X-FLUX           Y-FLUX           Z-FLUX
             5    TRIA1        4.006938E+01    -3.833333E+01                     -1.001735E+04     9.583333E+03
1     ELECTRIC AND MAGNETOSTATICS PROBLEM USING 2-D ELEMENTS                /    95 SUN SOLARIS NASTRAN    / MAY 17, 95 / PAGE    43
      NASTRAN TEST PROBLEM NO. T01-19-1A                                                                                            
0                                                                                                            SUBCASE 2              
 
                   F I N I T E   E L E M E N T   T E M P E R A T U R E   G R A D I E N T S   A N D   F L U X E S
 
    ELEMENT-ID   EL-TYPE        X-GRADIENT       Y-GRADIENT       Z-GRADIENT        X-FLUX           Y-FLUX           Z-FLUX
             6    TRIA2        5.543909E+01    -1.227638E+00                     -1.385977E+04     3.069095E+02
             7    TRIA2        1.227501E+00     5.543909E+01                     -3.068752E+02    -1.385977E+04
1     ELECTRIC AND MAGNETOSTATICS PROBLEM USING 2-D ELEMENTS                /    95 SUN SOLARIS NASTRAN    / MAY 17, 95 / PAGE    44
[...]
1     ELECTRIC AND MAGNETOSTATICS PROBLEM USING 2-D ELEMENTS                /    95 SUN SOLARIS NASTRAN    / MAY 17, 95 / PAGE   105
      NASTRAN TEST PROBLEM NO. T01-19-1A                                                                                            
0                                                                                                            SUBCASE 5              
 
                   F I N I T E   E L E M E N T   M A G N E T I C   F I E L D   A N D   I N D U C T I O N

 
    ELEMENT-ID   EL-TYPE         X-FIELD          Y-FIELD          Z-FIELD        X-INDUCTION      Y-INDUCTION      Z-INDUCTION
             1    QDMEM       -6.715304E-02     2.720498E-02    -1.488525E-02     6.801246E+00     1.678826E+01    -3.721312E+00
             3    QDMEM       -6.715306E-02     2.720497E-02    -1.488519E-02     6.801242E+00     1.678827E+01    -3.721297E+00
1     ELECTRIC AND MAGNETOSTATICS PROBLEM USING 2-D ELEMENTS                /    95 SUN SOLARIS NASTRAN    / MAY 17, 95 / PAGE   106
      NASTRAN TEST PROBLEM NO. T01-19-1A                                                                                            
0                                                                                                            SUBCASE 5              
 
                   F I N I T E   E L E M E N T   M A G N E T I C   F I E L D   A N D   I N D U C T I O N

 
    ELEMENT-ID   EL-TYPE         X-FIELD          Y-FIELD          Z-FIELD        X-INDUCTION      Y-INDUCTION      Z-INDUCTION
             2    QUAD1       -6.715305E-02     2.720498E-02    -1.488525E-02     6.801244E+00     1.678826E+01    -3.721312E+00
1     ELECTRIC AND MAGNETOSTATICS PROBLEM USING 2-D ELEMENTS                /    95 SUN SOLARIS NASTRAN    / MAY 17, 95 / PAGE   107
      NASTRAN TEST PROBLEM NO. T01-19-1A                                                                                            
0                                                                                                            SUBCASE 5              
 
                   F I N I T E   E L E M E N T   M A G N E T I C   F I E L D   A N D   I N D U C T I O N

 
    ELEMENT-ID   EL-TYPE         X-FIELD          Y-FIELD          Z-FIELD        X-INDUCTION      Y-INDUCTION      Z-INDUCTION
             4    QUAD2       -6.715304E-02     2.720498E-02    -1.488525E-02     1.678826E+01    -6.801246E+00    -3.721312E+00
1     ELECTRIC AND MAGNETOSTATICS PROBLEM USING 2-D ELEMENTS                /    95 SUN SOLARIS NASTRAN    / MAY 17, 95 / PAGE   108
      NASTRAN TEST PROBLEM NO. T01-19-1A                                                                                            
0                                                                                                            SUBCASE 5              
 
                   F I N I T E   E L E M E N T   M A G N E T I C   F I E L D   A N D   I N D U C T I O N

 
    ELEMENT-ID   EL-TYPE         X-FIELD          Y-FIELD          Z-FIELD        X-INDUCTION      Y-INDUCTION      Z-INDUCTION
             5    TRIA1       -4.148611E-02     3.028449E-02    -2.495229E-02     7.571124E+00     1.037153E+01    -6.238073E+00
1     ELECTRIC AND MAGNETOSTATICS PROBLEM USING 2-D ELEMENTS                /    95 SUN SOLARIS NASTRAN    / MAY 17, 95 / PAGE   109
      NASTRAN TEST PROBLEM NO. T01-19-1A                                                                                            
0                                                                                                            SUBCASE 5              
 
                   F I N I T E   E L E M E N T   M A G N E T I C   F I E L D   A N D   I N D U C T I O N

 
    ELEMENT-ID   EL-TYPE         X-FIELD          Y-FIELD          Z-FIELD        X-INDUCTION      Y-INDUCTION      Z-INDUCTION
             6    TRIA2       -4.148609E-02     3.028451E-02    -2.495223E-02    -1.037152E+01     7.571127E+00    -6.238058E+00
             7    TRIA2       -4.148608E-02     3.028452E-02    -2.495223E-02    -1.037152E+01     7.571131E+00    -6.238058E+00
1     ELECTRIC AND MAGNETOSTATICS PROBLEM USING 2-D ELEMENTS                /    95 SUN SOLARIS NASTRAN    / MAY 17, 95 / PAGE   110
      NASTRAN TEST PROBLEM NO. T01-19-1A                                                                                            
0                                                                                                            SUBCASE 5              
 
                   F I N I T E   E L E M E N T   M A G N E T I C   F I E L D   A N D   I N D U C T I O N

 
    ELEMENT-ID   EL-TYPE         X-FIELD          Y-FIELD          Z-FIELD        X-INDUCTION      Y-INDUCTION      Z-INDUCTION
             8    TRMEM       -4.148611E-02     3.028449E-02    -2.495229E-02    -1.037153E+01     7.571124E+00    -6.238073E+00
1     ELECTRIC AND MAGNETOSTATICS PROBLEM USING 2-D ELEMENTS                /    95 SUN SOLARIS NASTRAN    / MAY 17, 95 / PAGE   111
      NASTRAN TEST PROBLEM NO. T01-19-1A                                                                                            
0                                                                                                            SUBCASE 6              
 
                   F I N I T E   E L E M E N T   M A G N E T I C   F I E L D   A N D   I N D U C T I O N

 
    ELEMENT-ID   EL-TYPE         X-FIELD          Y-FIELD          Z-FIELD        X-INDUCTION      Y-INDUCTION      Z-INDUCTION
             1    QDMEM       -6.646805E-02     2.697241E-02    -1.485234E-02     6.743102E+00     1.661701E+01    -3.713086E+00
             3    QDMEM       -6.646807E-02     2.697239E-02    -1.485229E-02     6.743098E+00     1.661702E+01    -3.713071E+00
1     ELECTRIC AND MAGNETOSTATICS PROBLEM USING 2-D ELEMENTS                /    95 SUN SOLARIS NASTRAN    / MAY 17, 95 / PAGE   112
      NASTRAN TEST PROBLEM NO. T01-19-1A                                                                                            
0                                                                                                            SUBCASE 6              
 
                   F I N I T E   E L E M E N T   M A G N E T I C   F I E L D   A N D   I N D U C T I O N

 
    ELEMENT-ID   EL-TYPE         X-FIELD          Y-FIELD          Z-FIELD        X-INDUCTION      Y-INDUCTION      Z-INDUCTION
             2    QUAD1       -6.646802E-02     2.697244E-02    -1.485229E-02     6.743111E+00     1.661700E+01    -3.713071E+00
1     ELECTRIC AND MAGNETOSTATICS PROBLEM USING 2-D ELEMENTS                /    95 SUN SOLARIS NASTRAN    / MAY 17, 95 / PAGE   113
      NASTRAN TEST PROBLEM NO. T01-19-1A                                                                                            
0                                                                                                            SUBCASE 6              
 
                   F I N I T E   E L E M E N T   M A G N E T I C   F I E L D   A N D   I N D U C T I O N

 
    ELEMENT-ID   EL-TYPE         X-FIELD          Y-FIELD          Z-FIELD        X-INDUCTION      Y-INDUCTION      Z-INDUCTION
             4    QUAD2       -6.646806E-02     2.697240E-02    -1.485234E-02     1.661702E+01    -6.743100E+00    -3.713086E+00
1     ELECTRIC AND MAGNETOSTATICS PROBLEM USING 2-D ELEMENTS                /    95 SUN SOLARIS NASTRAN    / MAY 17, 95 / PAGE   114
      NASTRAN TEST PROBLEM NO. T01-19-1A                                                                                            
0                                                                                                            SUBCASE 6              
 
                   F I N I T E   E L E M E N T   M A G N E T I C   F I E L D   A N D   I N D U C T I O N

 
    ELEMENT-ID   EL-TYPE         X-FIELD          Y-FIELD          Z-FIELD        X-INDUCTION      Y-INDUCTION      Z-INDUCTION
             5    TRIA1       -4.098652E-02     3.001150E-02    -2.461004E-02     7.502874E+00     1.024663E+01    -6.152511E+00
1     ELECTRIC AND MAGNETOSTATICS PROBLEM USING 2-D ELEMENTS                /    95 SUN SOLARIS NASTRAN    / MAY 17, 95 / PAGE   115
      NASTRAN TEST PROBLEM NO. T01-19-1A                                                                                            
0                                                                                                            SUBCASE 6              
 
                   F I N I T E   E L E M E N T   M A G N E T I C   F I E L D   A N D   I N D U C T I O N

 
    ELEMENT-ID   EL-TYPE         X-FIELD          Y-FIELD          Z-FIELD        X-INDUCTION      Y-INDUCTION      Z-INDUCTION
             6    TRIA2       -4.098652E-02     3.001150E-02    -2.460998E-02    -1.024663E+01     7.502874E+00    -6.152496E+00
             7    TRIA2       -4.098650E-02     3.001151E-02    -2.460998E-02    -1.024663E+01     7.502878E+00    -6.152496E+00
1     ELECTRIC AND MAGNETOSTATICS PROBLEM USING 2-D ELEMENTS                /    95 SUN SOLARIS NASTRAN    / MAY 17, 95 / PAGE   116
      NASTRAN TEST PROBLEM NO. T01-19-1A                                                                                            
0                                                                                                            SUBCASE 6              
 
                   F I N I T E   E L E M E N T   M A G N E T I C   F I E L D   A N D   I N D U C T I O N

 
    ELEMENT-ID   EL-TYPE         X-FIELD          Y-FIELD          Z-FIELD        X-INDUCTION      Y-INDUCTION      Z-INDUCTION
             8    TRMEM       -4.098652E-02     3.001150E-02    -2.461004E-02    -1.024663E+01     7.502874E+00    -6.152511E+00
1     ELECTRIC AND MAGNETOSTATICS PROBLEM USING 2-D ELEMENTS                /    95 SUN SOLARIS NASTRAN    / MAY 17, 95 / PAGE   117
      NASTRAN TEST PROBLEM NO. T01-19-1A                                                                                            
0                                                                                                            SUBCASE 7              
 
                   F I N I T E   E L E M E N T   M A G N E T I C   F I E L D   A N D   I N D U C T I O N

 
    ELEMENT-ID   EL-TYPE         X-FIELD          Y-FIELD          Z-FIELD        X-INDUCTION      Y-INDUCTION      Z-INDUCTION
             1    QDMEM        6.058245E-03    -7.906745E-03    -3.284845E-03    -1.976686E+00    -1.514561E+00    -8.212112E-01
             3    QDMEM        6.058245E-03    -7.906745E-03    -3.284846E-03    -1.976686E+00    -1.514561E+00    -8.212114E-01
1     ELECTRIC AND MAGNETOSTATICS PROBLEM USING 2-D ELEMENTS                /    95 SUN SOLARIS NASTRAN    / MAY 17, 95 / PAGE   118
      NASTRAN TEST PROBLEM NO. T01-19-1A                                                                                            
0                                                                                                            SUBCASE 7              
 
                   F I N I T E   E L E M E N T   M A G N E T I C   F I E L D   A N D   I N D U C T I O N

 
    ELEMENT-ID   EL-TYPE         X-FIELD          Y-FIELD          Z-FIELD        X-INDUCTION      Y-INDUCTION      Z-INDUCTION
             2    QUAD1        6.058243E-03    -7.906747E-03    -3.284845E-03    -1.976687E+00    -1.514561E+00    -8.212112E-01
1     ELECTRIC AND MAGNETOSTATICS PROBLEM USING 2-D ELEMENTS                /    95 SUN SOLARIS NASTRAN    / MAY 17, 95 / PAGE   119
      NASTRAN TEST PROBLEM NO. T01-19-1A                                                                                            
0                                                                                                            SUBCASE 7              
 
                   F I N I T E   E L E M E N T   M A G N E T I C   F I E L D   A N D   I N D U C T I O N

 
    ELEMENT-ID   EL-TYPE         X-FIELD          Y-FIELD          Z-FIELD        X-INDUCTION      Y-INDUCTION      Z-INDUCTION
             4    QUAD2        6.058244E-03    -7.906746E-03    -3.284845E-03    -1.514561E+00     1.976686E+00    -8.212112E-01
1     ELECTRIC AND MAGNETOSTATICS PROBLEM USING 2-D ELEMENTS                /    95 SUN SOLARIS NASTRAN    / MAY 17, 95 / PAGE   120
      NASTRAN TEST PROBLEM NO. T01-19-1A                                                                                            
0                                                                                                            SUBCASE 7              
 
                   F I N I T E   E L E M E N T   M A G N E T I C   F I E L D   A N D   I N D U C T I O N

 
    ELEMENT-ID   EL-TYPE         X-FIELD          Y-FIELD          Z-FIELD        X-INDUCTION      Y-INDUCTION      Z-INDUCTION
             5    TRIA1        9.858947E-03    -9.752034E-03    -1.652496E-03    -2.438009E+00    -2.464737E+00    -4.131240E-01
1     ELECTRIC AND MAGNETOSTATICS PROBLEM USING 2-D ELEMENTS                /    95 SUN SOLARIS NASTRAN    / MAY 17, 95 / PAGE   121
      NASTRAN TEST PROBLEM NO. T01-19-1A                                                                                            
0                                                                                                            SUBCASE 7              
 
                   F I N I T E   E L E M E N T   M A G N E T I C   F I E L D   A N D   I N D U C T I O N

 
    ELEMENT-ID   EL-TYPE         X-FIELD          Y-FIELD          Z-FIELD        X-INDUCTION      Y-INDUCTION      Z-INDUCTION
             6    TRIA2        9.858945E-03    -9.752036E-03    -1.652497E-03     2.464736E+00    -2.438009E+00    -4.131242E-01
             7    TRIA2        9.858947E-03    -9.752034E-03    -1.652497E-03     2.464737E+00    -2.438009E+00    -4.131242E-01
1     ELECTRIC AND MAGNETOSTATICS PROBLEM USING 2-D ELEMENTS                /    95 SUN SOLARIS NASTRAN    / MAY 17, 95 / PAGE   122
      NASTRAN TEST PROBLEM NO. T01-19-1A                                                                                            
0                                                                                                            SUBCASE 7              
 
                   F I N I T E   E L E M E N T   M A G N E T I C   F I E L D   A N D   I N D U C T I O N

 
    ELEMENT-ID   EL-TYPE         X-FIELD          Y-FIELD          Z-FIELD        X-INDUCTION      Y-INDUCTION      Z-INDUCTION
             8    TRMEM        9.858947E-03    -9.752034E-03    -1.652499E-03     2.464737E+00    -2.438009E+00    -4.131247E-01
1     ELECTRIC AND MAGNETOSTATICS PROBLEM USING 2-D ELEMENTS                /    95 SUN SOLARIS NASTRAN    / MAY 17, 95 / PAGE   123
      NASTRAN TEST PROBLEM NO. T01-19-1A                                                                                            
0                                                                                                            SUBCASE 100            
 
                   F I N I T E   E L E M E N T   M A G N E T I C   F I E L D   A N D   I N D U C T I O N

 
    ELEMENT-ID   EL-TYPE         X-FIELD          Y-FIELD          Z-FIELD        X-INDUCTION      Y-INDUCTION      Z-INDUCTION
             1    QDMEM       -4.999997E+00     5.000003E+00     0.000000E+00     1.250001E+03     1.249999E+03     0.000000E+00
             3    QDMEM        0.000000E+00     0.000000E+00     0.000000E+00     0.000000E+00     0.000000E+00     0.000000E+00
1     ELECTRIC AND MAGNETOSTATICS PROBLEM USING 2-D ELEMENTS                /    95 SUN SOLARIS NASTRAN    / MAY 17, 95 / PAGE   124
      NASTRAN TEST PROBLEM NO. T01-19-1A                                                                                            
0                                                                                                            SUBCASE 100            
 
                   F I N I T E   E L E M E N T   M A G N E T I C   F I E L D   A N D   I N D U C T I O N

 
    ELEMENT-ID   EL-TYPE         X-FIELD          Y-FIELD          Z-FIELD        X-INDUCTION      Y-INDUCTION      Z-INDUCTION
             2    QUAD1        0.000000E+00     0.000000E+00     0.000000E+00     0.000000E+00     0.000000E+00     0.000000E+00
1     ELECTRIC AND MAGNETOSTATICS PROBLEM USING 2-D ELEMENTS                /    95 SUN SOLARIS NASTRAN    / MAY 17, 95 / PAGE   125
      NASTRAN TEST PROBLEM NO. T01-19-1A                                                                                            
0                                                                                                            SUBCASE 100            
 
                   F I N I T E   E L E M E N T   M A G N E T I C   F I E L D   A N D   I N D U C T I O N

 
    ELEMENT-ID   EL-TYPE         X-FIELD          Y-FIELD          Z-FIELD        X-INDUCTION      Y-INDUCTION      Z-INDUCTION
             4    QUAD2        0.000000E+00     0.000000E+00     0.000000E+00     0.000000E+00     0.000000E+00     0.000000E+00
1     ELECTRIC AND MAGNETOSTATICS PROBLEM USING 2-D ELEMENTS                /    95 SUN SOLARIS NASTRAN    / MAY 17, 95 / PAGE   126
      NASTRAN TEST PROBLEM NO. T01-19-1A                                                                                            
0                                                                                                            SUBCASE 100            
 
                   F I N I T E   E L E M E N T   M A G N E T I C   F I E L D   A N D   I N D U C T I O N

 
    ELEMENT-ID   EL-TYPE         X-FIELD          Y-FIELD          Z-FIELD        X-INDUCTION      Y-INDUCTION      Z-INDUCTION
             5    TRIA1        0.000000E+00     0.000000E+00     0.000000E+00     0.000000E+00     0.000000E+00     0.000000E+00
1     ELECTRIC AND MAGNETOSTATICS PROBLEM USING 2-D ELEMENTS                /    95 SUN SOLARIS NASTRAN    / MAY 17, 95 / PAGE   127
      NASTRAN TEST PROBLEM NO. T01-19-1A                                                                                            
0                                                                                                            SUBCASE 100            
 
                   F I N I T E   E L E M E N T   M A G N E T I C   F I E L D   A N D   I N D U C T I O N

 
    ELEMENT-ID   EL-TYPE         X-FIELD          Y-FIELD          Z-FIELD        X-INDUCTION      Y-INDUCTION      Z-INDUCTION
             6    TRIA2        0.000000E+00     0.000000E+00     0.000000E+00     0.000000E+00     0.000000E+00     0.000000E+00
             7    TRIA2        0.000000E+00     0.000000E+00     0.000000E+00     0.000000E+00     0.000000E+00     0.000000E+00
1     ELECTRIC AND MAGNETOSTATICS PROBLEM USING 2-D ELEMENTS                /    95 SUN SOLARIS NASTRAN    / MAY 17, 95 / PAGE   128
      NASTRAN TEST PROBLEM NO. T01-19-1A                                                                                            
0                                                                                                            SUBCASE 100            
 
                   F I N I T E   E L E M E N T   M A G N E T I C   F I E L D   A N D   I N D U C T I O N

 
    ELEMENT-ID   EL-TYPE         X-FIELD          Y-FIELD          Z-FIELD        X-INDUCTION      Y-INDUCTION      Z-INDUCTION
             8    TRMEM        0.000000E+00     0.000000E+00     0.000000E+00     0.000000E+00     0.000000E+00     0.000000E+00
0*** SYSTEM INFORMATION MESSAGE, NO PROLAT CARD FOUND




                                        * * * END OF JOB * * *
1
 JOB TITLE =  ELECTRIC AND MAGNETOSTATICS PROBLEM USING 2-D ELEMENTS             
 DATE:  5/17/95
 END TIME: 16:32:24
 TOTAL WALL CLOCK TIME      3 SEC.
 
