     NASTRAN FILES=(INP1,INP2)                                                       






                                  ****
                                *      *
                               *        *
                               *  N A S T R A N
                               *        *
                                *      *
                                  ****


                             SUN COMPUTER SYSTEMS    
                                SOLARIS VERSION

                          SYSTEM RELEASE -  1995 ED.

                                DISTRIBUTED BY

         COMPUTER SOFTWARE MANAGEMENT AND INFORMATION CENTER (COSMIC)
                 UNIVERSITY OF GEORGIA, ATHENS, GEORGIA 30602
                 PHONE: (706)542-3265      FAX: (706)542-4807
1                                                                           /    95 SUN SOLARIS NASTRAN    / MAY 17, 95 / PAGE     2
                                                                                                                                    
0                                                                                                                                   
                                                                                                         
                                                                                                         
                         INSTALLATION CENTER USER INFORMATION GIVEN IN THIS SECTION                      
                                                                                                         
                                     *********************************************                       
                                     *                                           *                       
                                     *  PLEASE READ THE COMMENT IN DEMO PROBLEM  *                       
                                     *  D01002A ABOUT SYSTEM TIMING CONSTANTS    *                       
                                     *                                           *                       
                                     *********************************************                       
                                                                                                         
                         ===X=    TOP OF PAGE REQUEST IF 'X' IS REPLACED BY '='                          
                                                                                                         
1                                                                           /    95 SUN SOLARIS NASTRAN    / MAY 17, 95 / PAGE     3
                                                                                                                                    
0                                                                                                                                   
0*** USER INFORMATION MESSAGE 225, GINO TIME CONSTANTS ARE BEING COMPUTED
     (SEE NASINFO FILE FOR ELIMINATION OF THESE COMPUTATIONS)
1                                                                           /    95 SUN SOLARIS NASTRAN    / MAY 17, 95 / PAGE     4
                                                                                                                                    
0        N A S T R A N    E X E C U T I V E    C O N T R O L    D E C K    E C H O                                                  
0                                                                                                                                   
                                                                                                                                    
                                                                                                                                    
     ID    T01231A,NASTRAN                                                           
     APP   DISP                                                                      
     SOL   1                                                                         
     DIAG  8,15,-2,-14,-7                                                            
     TIME  30                                                                        
     $                                                                               
     ALTER 113 $                                                                     
     $                                                                               
     $PRINT OQG1 TABLE FOR LATER COMPARISION                                         
     OFP    OQG1,,,,, //S,N,CARDNO $                                                 
     $                                                                               
     $CDC USERS, USE UT1 (UNIT 11) AND UT2 (UNIT 12) INSTEAD OF INP1 AND INP2        
     $IN THIS DEMO PROBLEM                                                           
     $                                                                               
     $COPY TABLE OQG1 TO INP1 (UNIT 15) AND COPY OQG1 TO MYFOOT (IN PACKED           
     $GINO FILE)                                                                     
     DUMMOD5 OQG1,,OQG1,,/,,MYFOOT,,/6/15/6/0/0/+1  $                                
     $                                                                               
     $PRINT  MYFOOT, IN MATRIX FORMAT, WHICH SHOULD CONTAIN OQG1 DATA                
     $PRINT  MATRIX KGG FOR LATER COMPARISON                                         
     MATPRN  MYFOOT,KGG,,,// $                                                       
     $                                                                               
     $COPY   MYFOOT AND KGG TO INP2 (UNIT 16), SEQUENTIAL FORMATTED TAPE             
     OUTPUT5 MYFOOT,KGG,,,//-1/16/*YOURFEET*/1  $                                    
     $                                                                               
     $RECOVER THE 2 FILES FROM INP2 (UNIT 16) AND MAKE THEM NASTRAN GINO FILES       
     INPUTT5 /OMYFOOT,OKGG,,,/-1/16/*YOURFEET*/1  $                                  
     $                                                                               
     $RECOVER THE BINARY FILE IN INP1 (UNIT 15) WHICH WAS SAVED IN DUMMOD5           
     INPUTT5  /OQG1X,,,,/-1/15/*XXXXXXXX*/0  $                                       
     $                                                                               
     $TABLE  PRINT OQG1X AND OMYFOOT, AND MATRIX PRINT OKGG FOR VERIFICATION         
     TABPT   OQG1X,OMYFOOT,,, // $                                                   
     MATPRN  OKGG,,,, // $                                                           
     $                                                                               
     $JUMP TO FINISH                                                                 
     JUMP  FINIS $                                                                   
     $                                                                               
     ENDALTER                                                                        
     $                                                                               
     CEND                                                                            


0*** USER INFORMATION MESSAGE, TURN DIAG 48 ON FOR NASTRAN RELEASE NEWS, DIAG DEFINITION, NEW DMAP
         MODULES AND NEW BULKDATA CARDS INFORMATION
1     DEMONSTRATION TO USE DUMMOD5, OUTPUT5 AND INPUT5                      /    95 SUN SOLARIS NASTRAN    / MAY 17, 95 / PAGE     5
      NASTRAN TEST PROBLEM NO. T01-23-1A                                                                                            
0                                                                                                                                   
0                                        C A S E    C O N T R O L   D E C K   E C H O                                               
                 CARD                                                                                                               
                 COUNT                                                                                                              
                  1      TITLE    = DEMONSTRATION TO USE DUMMOD5, OUTPUT5 AND INPUT5                     
                  2      SUBTITLE = NASTRAN TEST PROBLEM NO. T01-23-1A                                   
                  3      LOAD    = 10                                                                    
                  4      SPC     = 1                                                                     
                  5      SPCFORCE= ALL                                                                   
                  6      DISP    = NONE                                                                  
                  7      BEGIN BULK                                                                      


                        (NO. OF UNSORTED BULK DATA CARDS READ =    43, INCLUDING   0 COMMENT CARDS)
0*** USER INFORMATION MESSAGE 207, BULK DATA DECK IS NOT SORTED. NASTRAN WILL RE-ORDER THE INPUT DECK.
1     DEMONSTRATION TO USE DUMMOD5, OUTPUT5 AND INPUT5                      /    95 SUN SOLARIS NASTRAN    / MAY 17, 95 / PAGE     6
      NASTRAN TEST PROBLEM NO. T01-23-1A                                                                                            
0                                                                                                                                   
0                                                 S O R T E D   B U L K    D A T A    E C H O                                       
                     CARD                                                                                                           
                     COUNT        ---1--- +++2+++ ---3--- +++4+++ ---5--- +++6+++ ---7--- +++8+++ ---9--- +++10+++                  
                    1-        BAROR           5                       0.      0.      1.      1               
                    2-        CBAR    1       2       1       2       1.0     0.0     0.0     1               
                    3-        CBAR    2       5       1       3                                               
                    4-        CBAR    3       5       3       5                                               
                    5-        CBAR    4       5       7       9                                               
                    6-        CBAR    5       5       9       11                                              
                    7-        CBAR    6       5       2       4                                               
                    8-        CBAR    7       5       4       6                                               
                    9-        CBAR    8       5       6       8                                               
                   10-        CBAR    9       5       8       10                                              
                   11-        CBAR    10      5       5       7                                               
                   12-        CBAR    11      3       7       6                                               
                   13-        CBAR    12      3       5       6       1.0     0.0     0.0     1               
                   14-        FORCE   10      1               110.0   0.0     0.0     -1.0                    
                   15-        GRDSET                                                  246                     
                   16-        GRID    1               200.    0.0     10.0                                    
                   17-        GRID    2               200.    0.0     0.0                                     
                   18-        GRID    3               150.0   0.0     10.0                                    
                   19-        GRID    4               150.0   0.0     0.0                                     
                   20-        GRID    5               100.    0.0     10.0                                    
                   21-        GRID    6               100.    0.0     0.0                                     
                   22-        GRID    7               76.     0.0     10.0                                    
                   23-        GRID    8               50.0    0.0     0.0                                     
                   24-        GRID    9               25.86   0.0     10.0                                    
                   25-        GRID    10              0.      0.0     0.0                                     
                   26-        GRID    11              -24.    0.0     10.0                                    
                   27-        MAT1    6061    1.+7            0.3     0.1                                     
                   28-        PBAR    1       6061    100.    100.    100.    100.                    +P1     
                   29-        +P1     -1.0    1.0     1.0     1.0     1.0     -1.0    -1.0    -1.0            
                   30-        PBAR    2       6061    1.359   .752    .752    1.504                   +P2     
                   31-        +P2     -1.0    1.0     1.0     1.0     1.0     -1.0    -1.0    -1.0            
                   32-        PBAR    3       6061    .25     .08     .08     .09                     +P3     
                   33-        +P3     -.25    1.0     .25     1.0     .25     -1.0    -.25    1.0             
                   34-        PBAR    4       6061    .25     .08     .08     .09                     +P4     
                   35-        +P4     -.25    1.0     .25     1.0     .25     -1.0    -.25    1.0             
                   36-        PBAR    5       6061    2.718   1.504   1.504   3.0                     +P5     
                   37-        +P5     -1.0    6.0     1.0     6.0     1.0     -6.0    -1.0    -6.0            
                   38-        SPC1    1       3       1       2       4       6                               
                   39-        SPC1    1       13      10      11                                              
                   40-        SPCD    10      1       3       -1.0                                            
                   41-        SPCD    10      2       3       -1.0                                            
                   42-        SPCD    10      4       3       -1.0                                            
                   43-        SPCD    10      6       3       -1.0                                            
                              ENDDATA
0*** USER INFORMATION MESSAGE, THE FOLLOWING PROPERTY IDS ARE PRESENT BUT NOT USED -

             1        4
0*** USER INFORMATION MESSAGE -  GRID-POINT RESEQUENCING PROCESSOR BANDIT IS NOT USED DUE TO
     SMALL PROBLEM SIZE
0          **NO ERRORS FOUND - EXECUTE NASTRAN PROGRAM**
0*** USER INFORMATION MESSAGE 238, TURN DIAG 38 ON FOR ADDITIONAL ELEMENT PROCESSING INFORMATION

1     DEMONSTRATION TO USE DUMMOD5, OUTPUT5 AND INPUT5                      /    95 SUN SOLARIS NASTRAN    / MAY 17, 95 / PAGE     7
      NASTRAN TEST PROBLEM NO. T01-23-1A                                                                                            

                                                                                                                                    




0*** USER INFORMATION MESSAGE 3113,
     EMG MODULE PROCESSING DOUBLE PRECISION BAR      ELEMENTS (ELEMENT TYPE  34) STARTING WITH ID        1
0*** USER INFORMATION MESSAGE 3035
     FOR SUBCASE NUMBER     1, EPSILON SUB E =   3.4866033E-17
1     DEMONSTRATION TO USE DUMMOD5, OUTPUT5 AND INPUT5                      /    95 SUN SOLARIS NASTRAN    / MAY 17, 95 / PAGE     8
      NASTRAN TEST PROBLEM NO. T01-23-1A                                                                                            
0                                                                                                                                   
 
                               F O R C E S   O F   S I N G L E - P O I N T   C O N S T R A I N T
 
      POINT ID.   TYPE          T1             T2             T3             R1             R2             R3
             1      G      0.0            0.0            1.120520E+02   0.0            0.0            0.0                           
             2      G      0.0            0.0           -1.199711E+01   0.0            0.0            0.0                           
             4      G      0.0            0.0            7.452454E+01   0.0            0.0            0.0                           
             6      G      0.0            0.0           -1.316064E+02   0.0            0.0            0.0                           
            10      G      4.760130E+02   0.0            3.414592E+01   0.0            0.0            0.0                           
            11      G     -4.760130E+02   0.0            3.288108E+01   0.0            0.0            0.0                           
1     DEMONSTRATION TO USE DUMMOD5, OUTPUT5 AND INPUT5                      /    95 SUN SOLARIS NASTRAN    / MAY 17, 95 / PAGE     9
      NASTRAN TEST PROBLEM NO. T01-23-1A                                                                                            
0                                                                                                                                   
0                                                                                                                                   
                                                                                                                                    
                                                                                                                                    
0*** MODULE DUMMOD5 CALLED BY USER DMAP ALTER.
     PARAMETERS ARE    P=    6,   15,    6,    0,    0,     Q=    1     R=   0

  COLUMN=    1
      0.000000E+00    0.000000E+00    0.000000E+00    0.112052E+03    0.000000E+00    0.000000E+00    0.000000E+00    0.000000E+00
      0.000000E+00    0.000000E+00    0.000000E+00   -0.119971E+02    0.000000E+00    0.000000E+00    0.000000E+00    0.000000E+00
      0.000000E+00    0.000000E+00    0.000000E+00    0.745245E+02    0.000000E+00    0.000000E+00    0.000000E+00    0.000000E+00
      0.000000E+00    0.000000E+00    0.000000E+00   -0.131606E+03    0.000000E+00    0.000000E+00    0.000000E+00    0.000000E+00
      0.000000E+00    0.476013E+03    0.000000E+00    0.341459E+02    0.000000E+00    0.000000E+00    0.000000E+00    0.000000E+00
      0.000000E+00   -0.476013E+03    0.000000E+00    0.328811E+02    0.000000E+00    0.000000E+00    0.000000E+00    0.000000E+00
0*** USER INFORMATION MESSAGE, MODULE DUMMOD5 SUCCESSFULLY COPIED TABULAR DATA FROM OQG1     TO OUTPUT TAPE
     (FORTRAN UNIT  15) IN BANDED MATRIX FORM


     GRID-ID ARRAY FOLLOWS/FROM OQG1    
            1       2       4       6      10      11
  COLUMN=    1
      0.000000E+00    0.000000E+00    0.000000E+00    0.112052E+03    0.000000E+00    0.000000E+00    0.000000E+00    0.000000E+00
      0.000000E+00    0.000000E+00    0.000000E+00   -0.119971E+02    0.000000E+00    0.000000E+00    0.000000E+00    0.000000E+00
      0.000000E+00    0.000000E+00    0.000000E+00    0.745245E+02    0.000000E+00    0.000000E+00    0.000000E+00    0.000000E+00
      0.000000E+00    0.000000E+00    0.000000E+00   -0.131606E+03    0.000000E+00    0.000000E+00    0.000000E+00    0.000000E+00
      0.000000E+00    0.476013E+03    0.000000E+00    0.341459E+02    0.000000E+00    0.000000E+00    0.000000E+00    0.000000E+00
      0.000000E+00   -0.476013E+03    0.000000E+00    0.328811E+02    0.000000E+00    0.000000E+00    0.000000E+00    0.000000E+00
0*** USER INFORMATION MESSAGE, MODULE DUMMOD5 SUCCESSFULLY PROCESSED TABULAR DATA FROM OQG1     TO DATA BLOCK MYFOOT  
     IN GINO PACKED FORM


     GRID-ID ARRAY FOLLOWS/FROM OQG1    
            1       2       4       6      10      11
0*** USER INFORMATION MESSAGE, FOLLOWING DATA BLOCKS WERE COPIED TO FORTRAN UNIT 15 BY MODULE DUMMOD5
     USING UNFORMATTED (BINARY) WRITE
      OQG1    
1     DEMONSTRATION TO USE DUMMOD5, OUTPUT5 AND INPUT5                      /    95 SUN SOLARIS NASTRAN    / MAY 17, 95 / PAGE    10
      NASTRAN TEST PROBLEM NO. T01-23-1A                                                                                            
0                                                                                                                                   
0      MATRIX MYFOOT   (GINO NAME 101 ) IS A S.P.REAL      1 COLUMN X     48 ROW RECTANG  MATRIX.
0COLUMN      1      ROWS      1 THRU     44     --------------------------------------------------
 
   0.00000E+00  0.00000E+00  0.00000E+00  1.12052E+02  0.00000E+00  0.00000E+00  0.00000E+00  0.00000E+00  0.00000E+00  0.00000E+00
   0.00000E+00 -1.19971E+01  0.00000E+00  0.00000E+00  0.00000E+00  0.00000E+00  0.00000E+00  0.00000E+00  0.00000E+00  7.45245E+01
   0.00000E+00  0.00000E+00  0.00000E+00  0.00000E+00  0.00000E+00  0.00000E+00  0.00000E+00 -1.31606E+02  0.00000E+00  0.00000E+00
   0.00000E+00  0.00000E+00  0.00000E+00  4.76013E+02  0.00000E+00  3.41459E+01  0.00000E+00  0.00000E+00  0.00000E+00  0.00000E+00
   0.00000E+00 -4.76013E+02  0.00000E+00  3.28811E+01
0THE NUMBER OF NON-ZERO WORDS IN THE LONGEST RECORD =      14
0THE DENSITY OF THIS MATRIX IS  29.16 PERCENT.
1     DEMONSTRATION TO USE DUMMOD5, OUTPUT5 AND INPUT5                      /    95 SUN SOLARIS NASTRAN    / MAY 17, 95 / PAGE    11
      NASTRAN TEST PROBLEM NO. T01-23-1A                                                                                            
0                                                                                                                                   
0      MATRIX KGG      (GINO NAME 102 ) IS A D.P.REAL     66 COLUMN X     66 ROW SYMMETRC MATRIX.
0COLUMN      1      ROWS      1 THRU     13     --------------------------------------------------
 
   6.338400D+05  0.000000D+00  0.000000D+00  0.000000D+00 -4.512000D+05  0.000000D+00 -9.024000D+04  0.000000D+00  0.000000D+00
   0.000000D+00 -4.512000D+05  0.000000D+00 -5.436000D+05
0COLUMN      2      ROWS      2 THRU     18     --------------------------------------------------
 
   9.168384D+04  0.000000D+00  4.512000D+05  0.000000D+00 -3.609600D+04  0.000000D+00 -9.024000D+04  0.000000D+00  4.512000D+05
   0.000000D+00  0.000000D+00  0.000000D+00 -1.443840D+03  0.000000D+00  0.000000D+00  0.000000D+00 -3.609600D+04
0COLUMN      3      ROWS      3 THRU     17     --------------------------------------------------
 
   1.360444D+06  0.000000D+00  3.609600D+04  0.000000D+00  0.000000D+00  0.000000D+00 -1.359000D+06  0.000000D+00  0.000000D+00
   0.000000D+00  0.000000D+00  0.000000D+00 -1.443840D+03  0.000000D+00  3.609600D+04
0COLUMN      4      ROWS      2 THRU     16     --------------------------------------------------
 
   4.512000D+05  0.000000D+00  3.238769D+06  0.000000D+00  0.000000D+00  0.000000D+00 -4.512000D+05  0.000000D+00  1.504000D+06
   0.000000D+00  0.000000D+00  0.000000D+00  0.000000D+00  0.000000D+00 -2.307692D+05
0COLUMN      5      ROWS      1 THRU     17     --------------------------------------------------
 
  -4.512000D+05  0.000000D+00  3.609600D+04  0.000000D+00  4.211200D+06  0.000000D+00  4.512000D+05  0.000000D+00  0.000000D+00
   0.000000D+00  1.504000D+06  0.000000D+00  0.000000D+00  0.000000D+00 -3.609600D+04  0.000000D+00  6.016000D+05
0COLUMN      6      ROWS      2 THRU     18     --------------------------------------------------
 
  -3.609600D+04  0.000000D+00  0.000000D+00  0.000000D+00  1.781662D+06  0.000000D+00  0.000000D+00  0.000000D+00  0.000000D+00
   0.000000D+00 -5.784615D+05  0.000000D+00  3.609600D+04  0.000000D+00  0.000000D+00  0.000000D+00  6.016000D+05
0COLUMN      7      ROWS      1 THRU     19     --------------------------------------------------
 
  -9.024000D+04  0.000000D+00  0.000000D+00  0.000000D+00  4.512000D+05  0.000000D+00  6.338400D+05  0.000000D+00  0.000000D+00
   0.000000D+00  4.512000D+05  0.000000D+00  0.000000D+00  0.000000D+00  0.000000D+00  0.000000D+00  0.000000D+00  0.000000D+00
  -5.436000D+05
0COLUMN      8      ROWS      2 THRU     24     --------------------------------------------------
 
  -9.024000D+04  0.000000D+00 -4.512000D+05  0.000000D+00  0.000000D+00  0.000000D+00  9.168384D+04  0.000000D+00 -4.512000D+05
   0.000000D+00 -3.609600D+04  0.000000D+00  0.000000D+00  0.000000D+00  0.000000D+00  0.000000D+00  0.000000D+00  0.000000D+00
  -1.443840D+03  0.000000D+00  0.000000D+00  0.000000D+00 -3.609600D+04
0COLUMN      9      ROWS      3 THRU     23     --------------------------------------------------
 
  -1.359000D+06  0.000000D+00  0.000000D+00  0.000000D+00  0.000000D+00  0.000000D+00  1.360444D+06  0.000000D+00  3.609600D+04
   0.000000D+00  0.000000D+00  0.000000D+00  0.000000D+00  0.000000D+00  0.000000D+00  0.000000D+00  0.000000D+00  0.000000D+00
  -1.443840D+03  0.000000D+00  3.609600D+04
0COLUMN     10      ROWS      2 THRU     22     --------------------------------------------------
 
   4.512000D+05  0.000000D+00  1.504000D+06  0.000000D+00  0.000000D+00  0.000000D+00 -4.512000D+05  0.000000D+00  3.238769D+06
1     DEMONSTRATION TO USE DUMMOD5, OUTPUT5 AND INPUT5                      /    95 SUN SOLARIS NASTRAN    / MAY 17, 95 / PAGE    12
      NASTRAN TEST PROBLEM NO. T01-23-1A                                                                                            
0                                                                                                                                   
0    MATRIX  KGG         CONTINUED                                                                                                  
                                                                                                                                    
                                                                                                                                    
   0.000000D+00  0.000000D+00  0.000000D+00  0.000000D+00  0.000000D+00  0.000000D+00  0.000000D+00  0.000000D+00  0.000000D+00
   0.000000D+00  0.000000D+00 -2.307692D+05
0COLUMN     11      ROWS      1 THRU     23     --------------------------------------------------
 
  -4.512000D+05  0.000000D+00  0.000000D+00  0.000000D+00  1.504000D+06  0.000000D+00  4.512000D+05  0.000000D+00  3.609600D+04
   0.000000D+00  4.211200D+06  0.000000D+00  0.000000D+00  0.000000D+00  0.000000D+00  0.000000D+00  0.000000D+00  0.000000D+00
   0.000000D+00  0.000000D+00 -3.609600D+04  0.000000D+00  6.016000D+05
0COLUMN     12      ROWS      6 THRU     24     --------------------------------------------------
 
  -5.784615D+05  0.000000D+00 -3.609600D+04  0.000000D+00  0.000000D+00  0.000000D+00  1.781662D+06  0.000000D+00  0.000000D+00
   0.000000D+00  0.000000D+00  0.000000D+00  0.000000D+00  0.000000D+00  3.609600D+04  0.000000D+00  0.000000D+00  0.000000D+00
   6.016000D+05
0COLUMN     13      ROWS      1 THRU     25     --------------------------------------------------
 
  -5.436000D+05  0.000000D+00  0.000000D+00  0.000000D+00  0.000000D+00  0.000000D+00  0.000000D+00  0.000000D+00  0.000000D+00
   0.000000D+00  0.000000D+00  0.000000D+00  1.087200D+06  0.000000D+00  0.000000D+00  0.000000D+00  0.000000D+00  0.000000D+00
   0.000000D+00  0.000000D+00  0.000000D+00  0.000000D+00  0.000000D+00  0.000000D+00 -5.436000D+05
0COLUMN     14      ROWS      2 THRU     30     --------------------------------------------------
 
  -1.443840D+03  0.000000D+00  0.000000D+00  0.000000D+00  3.609600D+04  0.000000D+00  0.000000D+00  0.000000D+00  0.000000D+00
   0.000000D+00  0.000000D+00  0.000000D+00  2.887680D+03  0.000000D+00  0.000000D+00  0.000000D+00  0.000000D+00  0.000000D+00
   0.000000D+00  0.000000D+00  0.000000D+00  0.000000D+00  0.000000D+00  0.000000D+00 -1.443840D+03  0.000000D+00  0.000000D+00
   0.000000D+00 -3.609600D+04
0COLUMN     15      ROWS      3 THRU     29     --------------------------------------------------
 
  -1.443840D+03  0.000000D+00 -3.609600D+04  0.000000D+00  0.000000D+00  0.000000D+00  0.000000D+00  0.000000D+00  0.000000D+00
   0.000000D+00  0.000000D+00  0.000000D+00  2.887680D+03  0.000000D+00  0.000000D+00  0.000000D+00  0.000000D+00  0.000000D+00
   0.000000D+00  0.000000D+00  0.000000D+00  0.000000D+00  0.000000D+00  0.000000D+00 -1.443840D+03  0.000000D+00  3.609600D+04
0COLUMN     16      ROWS      4 THRU     28     --------------------------------------------------
 
  -2.307692D+05  0.000000D+00  0.000000D+00  0.000000D+00  0.000000D+00  0.000000D+00  0.000000D+00  0.000000D+00  0.000000D+00
   0.000000D+00  0.000000D+00  0.000000D+00  4.615385D+05  0.000000D+00  0.000000D+00  0.000000D+00  0.000000D+00  0.000000D+00
   0.000000D+00  0.000000D+00  0.000000D+00  0.000000D+00  0.000000D+00  0.000000D+00 -2.307692D+05
0COLUMN     17      ROWS      3 THRU     29     --------------------------------------------------
 
   3.609600D+04  0.000000D+00  6.016000D+05  0.000000D+00  0.000000D+00  0.000000D+00  0.000000D+00  0.000000D+00  0.000000D+00
   0.000000D+00  0.000000D+00  0.000000D+00  0.000000D+00  0.000000D+00  2.406400D+06  0.000000D+00  0.000000D+00  0.000000D+00
   0.000000D+00  0.000000D+00  0.000000D+00  0.000000D+00  0.000000D+00  0.000000D+00 -3.609600D+04  0.000000D+00  6.016000D+05
0COLUMN     18      ROWS      2 THRU     30     --------------------------------------------------
 
1     DEMONSTRATION TO USE DUMMOD5, OUTPUT5 AND INPUT5                      /    95 SUN SOLARIS NASTRAN    / MAY 17, 95 / PAGE    13
      NASTRAN TEST PROBLEM NO. T01-23-1A                                                                                            
0                                                                                                                                   
0    MATRIX  KGG         CONTINUED                                                                                                  
                                                                                                                                    
                                                                                                                                    
  -3.609600D+04  0.000000D+00  0.000000D+00  0.000000D+00  6.016000D+05  0.000000D+00  0.000000D+00  0.000000D+00  0.000000D+00
   0.000000D+00  0.000000D+00  0.000000D+00  0.000000D+00  0.000000D+00  0.000000D+00  0.000000D+00  2.406400D+06  0.000000D+00
   0.000000D+00  0.000000D+00  0.000000D+00  0.000000D+00  0.000000D+00  0.000000D+00  3.609600D+04  0.000000D+00  0.000000D+00
   0.000000D+00  6.016000D+05
0COLUMN     19      ROWS      7 THRU     31     --------------------------------------------------
 
  -5.436000D+05  0.000000D+00  0.000000D+00  0.000000D+00  0.000000D+00  0.000000D+00  0.000000D+00  0.000000D+00  0.000000D+00
   0.000000D+00  0.000000D+00  0.000000D+00  1.087200D+06  0.000000D+00  0.000000D+00  0.000000D+00  0.000000D+00  0.000000D+00
   0.000000D+00  0.000000D+00  0.000000D+00  0.000000D+00  0.000000D+00  0.000000D+00 -5.436000D+05
0COLUMN     20      ROWS      8 THRU     36     --------------------------------------------------
 
  -1.443840D+03  0.000000D+00  0.000000D+00  0.000000D+00  3.609600D+04  0.000000D+00  0.000000D+00  0.000000D+00  0.000000D+00
   0.000000D+00  0.000000D+00  0.000000D+00  2.887680D+03  0.000000D+00  0.000000D+00  0.000000D+00  0.000000D+00  0.000000D+00
   0.000000D+00  0.000000D+00  0.000000D+00  0.000000D+00  0.000000D+00  0.000000D+00 -1.443840D+03  0.000000D+00  0.000000D+00
   0.000000D+00 -3.609600D+04
0COLUMN     21      ROWS      9 THRU     35     --------------------------------------------------
 
  -1.443840D+03  0.000000D+00 -3.609600D+04  0.000000D+00  0.000000D+00  0.000000D+00  0.000000D+00  0.000000D+00  0.000000D+00
   0.000000D+00  0.000000D+00  0.000000D+00  2.887680D+03  0.000000D+00  0.000000D+00  0.000000D+00  0.000000D+00  0.000000D+00
   0.000000D+00  0.000000D+00  0.000000D+00  0.000000D+00  0.000000D+00  0.000000D+00 -1.443840D+03  0.000000D+00  3.609600D+04
0COLUMN     22      ROWS     10 THRU     34     --------------------------------------------------
 
  -2.307692D+05  0.000000D+00  0.000000D+00  0.000000D+00  0.000000D+00  0.000000D+00  0.000000D+00  0.000000D+00  0.000000D+00
   0.000000D+00  0.000000D+00  0.000000D+00  4.615385D+05  0.000000D+00  0.000000D+00  0.000000D+00  0.000000D+00  0.000000D+00
   0.000000D+00  0.000000D+00  0.000000D+00  0.000000D+00  0.000000D+00  0.000000D+00 -2.307692D+05
0COLUMN     23      ROWS      9 THRU     35     --------------------------------------------------
 
   3.609600D+04  0.000000D+00  6.016000D+05  0.000000D+00  0.000000D+00  0.000000D+00  0.000000D+00  0.000000D+00  0.000000D+00
   0.000000D+00  0.000000D+00  0.000000D+00  0.000000D+00  0.000000D+00  2.406400D+06  0.000000D+00  0.000000D+00  0.000000D+00
   0.000000D+00  0.000000D+00  0.000000D+00  0.000000D+00  0.000000D+00  0.000000D+00 -3.609600D+04  0.000000D+00  6.016000D+05
0COLUMN     24      ROWS      8 THRU     36     --------------------------------------------------
 
  -3.609600D+04  0.000000D+00  0.000000D+00  0.000000D+00  6.016000D+05  0.000000D+00  0.000000D+00  0.000000D+00  0.000000D+00
   0.000000D+00  0.000000D+00  0.000000D+00  0.000000D+00  0.000000D+00  0.000000D+00  0.000000D+00  2.406400D+06  0.000000D+00
   0.000000D+00  0.000000D+00  0.000000D+00  0.000000D+00  0.000000D+00  0.000000D+00  3.609600D+04  0.000000D+00  0.000000D+00
   0.000000D+00  6.016000D+05
0COLUMN     25      ROWS     13 THRU     37     --------------------------------------------------
 
  -5.436000D+05  0.000000D+00  0.000000D+00  0.000000D+00  0.000000D+00  0.000000D+00  0.000000D+00  0.000000D+00  0.000000D+00
   0.000000D+00  0.000000D+00  0.000000D+00  1.685700D+06  0.000000D+00  0.000000D+00  0.000000D+00 -4.800000D+04  0.000000D+00
1     DEMONSTRATION TO USE DUMMOD5, OUTPUT5 AND INPUT5                      /    95 SUN SOLARIS NASTRAN    / MAY 17, 95 / PAGE    14
      NASTRAN TEST PROBLEM NO. T01-23-1A                                                                                            
0                                                                                                                                   
0    MATRIX  KGG         CONTINUED                                                                                                  
                                                                                                                                    
                                                                                                                                    
  -9.600000D+03  0.000000D+00  0.000000D+00  0.000000D+00 -4.800000D+04  0.000000D+00 -1.132500D+06
0COLUMN     26      ROWS     14 THRU     42     --------------------------------------------------
 
  -1.443840D+03  0.000000D+00  0.000000D+00  0.000000D+00  3.609600D+04  0.000000D+00  0.000000D+00  0.000000D+00  0.000000D+00
   0.000000D+00  0.000000D+00  0.000000D+00  2.409939D+04  0.000000D+00  4.800000D+04  0.000000D+00 -1.205707D+05  0.000000D+00
  -9.600000D+03  0.000000D+00  4.800000D+04  0.000000D+00  0.000000D+00  0.000000D+00 -1.305556D+04  0.000000D+00  0.000000D+00
   0.000000D+00 -1.566667D+05
0COLUMN     27      ROWS     15 THRU     41     --------------------------------------------------
 
  -1.443840D+03  0.000000D+00 -3.609600D+04  0.000000D+00  0.000000D+00  0.000000D+00  0.000000D+00  0.000000D+00  0.000000D+00
   0.000000D+00  0.000000D+00  0.000000D+00  2.644994D+05  0.000000D+00  1.205707D+05  0.000000D+00  0.000000D+00  0.000000D+00
  -2.500000D+05  0.000000D+00  0.000000D+00  0.000000D+00  0.000000D+00  0.000000D+00 -1.305556D+04  0.000000D+00  1.566667D+05
0COLUMN     28      ROWS     16 THRU     40     --------------------------------------------------
 
  -2.307692D+05  0.000000D+00  0.000000D+00  0.000000D+00  0.000000D+00  0.000000D+00  0.000000D+00  0.000000D+00  0.000000D+00
   0.000000D+00  4.800000D+04  0.000000D+00  1.031538D+06  0.000000D+00  0.000000D+00  0.000000D+00 -4.800000D+04  0.000000D+00
   1.600000D+05  0.000000D+00  0.000000D+00  0.000000D+00  0.000000D+00  0.000000D+00 -4.807692D+05
0COLUMN     29      ROWS     15 THRU     41     --------------------------------------------------
 
   3.609600D+04  0.000000D+00  6.016000D+05  0.000000D+00  0.000000D+00  0.000000D+00  0.000000D+00  0.000000D+00  0.000000D+00
   0.000000D+00 -4.800000D+04  0.000000D+00  1.205707D+05  0.000000D+00  4.029867D+06  0.000000D+00  4.800000D+04  0.000000D+00
   0.000000D+00  0.000000D+00  1.600000D+05  0.000000D+00  0.000000D+00  0.000000D+00 -1.566667D+05  0.000000D+00  1.253333D+06
0COLUMN     30      ROWS     14 THRU     42     --------------------------------------------------
 
  -3.609600D+04  0.000000D+00  0.000000D+00  0.000000D+00  6.016000D+05  0.000000D+00  0.000000D+00  0.000000D+00  0.000000D+00
   0.000000D+00  0.000000D+00  0.000000D+00 -1.205707D+05  0.000000D+00  0.000000D+00  0.000000D+00  3.744482D+06  0.000000D+00
   0.000000D+00  0.000000D+00  0.000000D+00  0.000000D+00 -3.461539D+04  0.000000D+00  1.566667D+05  0.000000D+00  0.000000D+00
   0.000000D+00  1.253333D+06
0COLUMN     31      ROWS     19 THRU     43     --------------------------------------------------
 
  -5.436000D+05  0.000000D+00  0.000000D+00  0.000000D+00  0.000000D+00  0.000000D+00 -9.600000D+03  0.000000D+00  0.000000D+00
   0.000000D+00  4.800000D+04  0.000000D+00  1.178811D+06  0.000000D+00 -3.394354D+04  0.000000D+00  5.073100D+04  0.000000D+00
  -8.201070D+04  0.000000D+00  3.394354D+04  0.000000D+00  2.730997D+03  0.000000D+00 -5.436000D+05
0COLUMN     32      ROWS     20 THRU     48     --------------------------------------------------
 
  -1.443840D+03  0.000000D+00  0.000000D+00  0.000000D+00  3.609600D+04  0.000000D+00 -9.600000D+03  0.000000D+00 -4.800000D+04
   0.000000D+00  0.000000D+00  0.000000D+00  1.303388D+04  0.000000D+00 -5.073100D+04  0.000000D+00 -6.554392D+03  0.000000D+00
  -5.461994D+02  0.000000D+00 -2.730997D+03  0.000000D+00 -6.554392D+03  0.000000D+00 -1.443840D+03  0.000000D+00  0.000000D+00
   0.000000D+00 -3.609600D+04
0COLUMN     33      ROWS     21 THRU     47     --------------------------------------------------
 
1     DEMONSTRATION TO USE DUMMOD5, OUTPUT5 AND INPUT5                      /    95 SUN SOLARIS NASTRAN    / MAY 17, 95 / PAGE    15
      NASTRAN TEST PROBLEM NO. T01-23-1A                                                                                            
0                                                                                                                                   
0    MATRIX  KGG         CONTINUED                                                                                                  
                                                                                                                                    
                                                                                                                                    
  -1.443840D+03  0.000000D+00 -3.609600D+04  0.000000D+00  0.000000D+00  0.000000D+00 -2.500000D+05  0.000000D+00  0.000000D+00
   0.000000D+00 -3.394354D+04  0.000000D+00  2.675770D+05  0.000000D+00  6.554392D+03  0.000000D+00  3.394354D+04  0.000000D+00
  -1.468934D+04  0.000000D+00  6.554392D+03  0.000000D+00  0.000000D+00  0.000000D+00 -1.443840D+03  0.000000D+00  3.609600D+04
0COLUMN     34      ROWS     22 THRU     46     --------------------------------------------------
 
  -2.307692D+05  0.000000D+00  0.000000D+00  0.000000D+00  4.800000D+04  0.000000D+00  1.600000D+05  0.000000D+00  0.000000D+00
   0.000000D+00 -5.073100D+04  0.000000D+00  8.110893D+05  0.000000D+00  3.896922D+04  0.000000D+00  2.730997D+03  0.000000D+00
  -2.240819D+03  0.000000D+00  2.657470D+04  0.000000D+00  0.000000D+00  0.000000D+00 -2.307692D+05
0COLUMN     35      ROWS     21 THRU     47     --------------------------------------------------
 
   3.609600D+04  0.000000D+00  6.016000D+05  0.000000D+00 -4.800000D+04  0.000000D+00  0.000000D+00  0.000000D+00  1.600000D+05
   0.000000D+00  5.073100D+04  0.000000D+00  6.554392D+03  0.000000D+00  2.849477D+06  0.000000D+00 -2.730997D+03  0.000000D+00
  -6.554392D+03  0.000000D+00  6.153846D+04  0.000000D+00  0.000000D+00  0.000000D+00 -3.609600D+04  0.000000D+00  6.016000D+05
0COLUMN     36      ROWS     20 THRU     48     --------------------------------------------------
 
  -3.609600D+04  0.000000D+00  0.000000D+00  0.000000D+00  6.016000D+05  0.000000D+00  0.000000D+00  0.000000D+00  0.000000D+00
   0.000000D+00 -3.461539D+04  0.000000D+00 -6.554392D+03  0.000000D+00  3.896922D+04  0.000000D+00  2.547855D+06  0.000000D+00
   6.554392D+03  0.000000D+00  2.657470D+04  0.000000D+00  5.046567D+04  0.000000D+00  3.609600D+04  0.000000D+00  0.000000D+00
   0.000000D+00  6.016000D+05
0COLUMN     37      ROWS     25 THRU     49     --------------------------------------------------
 
  -1.132500D+06  0.000000D+00  0.000000D+00  0.000000D+00  0.000000D+00  0.000000D+00 -8.201070D+04  0.000000D+00  3.394354D+04
   0.000000D+00 -2.730997D+03  0.000000D+00  1.756593D+06  0.000000D+00 -3.394354D+04  0.000000D+00 -2.730997D+03  0.000000D+00
   0.000000D+00  0.000000D+00  0.000000D+00  0.000000D+00  0.000000D+00  0.000000D+00 -5.420822D+05
0COLUMN     38      ROWS     26 THRU     54     --------------------------------------------------
 
  -1.305556D+04  0.000000D+00  0.000000D+00  0.000000D+00  1.566667D+05  0.000000D+00 -5.461994D+02  0.000000D+00  2.730997D+03
   0.000000D+00  6.554392D+03  0.000000D+00  1.503353D+04  0.000000D+00  2.730997D+03  0.000000D+00  1.273263D+05  0.000000D+00
   0.000000D+00  0.000000D+00  0.000000D+00  0.000000D+00  0.000000D+00  0.000000D+00 -1.431779D+03  0.000000D+00  0.000000D+00
   0.000000D+00 -3.589471D+04
0COLUMN     39      ROWS     27 THRU     53     --------------------------------------------------
 
  -1.305556D+04  0.000000D+00 -1.566667D+05  0.000000D+00  3.394354D+04  0.000000D+00 -1.468934D+04  0.000000D+00 -6.554392D+03
   0.000000D+00 -3.394354D+04  0.000000D+00  2.917668D+04  0.000000D+00 -1.273263D+05  0.000000D+00  0.000000D+00  0.000000D+00
   0.000000D+00  0.000000D+00  0.000000D+00  0.000000D+00  0.000000D+00  0.000000D+00 -1.431779D+03  0.000000D+00  3.589471D+04
0COLUMN     40      ROWS     28 THRU     52     --------------------------------------------------
 
  -4.807692D+05  0.000000D+00  0.000000D+00  0.000000D+00 -2.730997D+03  0.000000D+00 -2.240819D+03  0.000000D+00  2.657470D+04
   0.000000D+00  2.730997D+03  0.000000D+00  7.404449D+05  0.000000D+00  3.896922D+04  0.000000D+00  0.000000D+00  0.000000D+00
   0.000000D+00  0.000000D+00  0.000000D+00  0.000000D+00  0.000000D+00  0.000000D+00 -2.301249D+05
1     DEMONSTRATION TO USE DUMMOD5, OUTPUT5 AND INPUT5                      /    95 SUN SOLARIS NASTRAN    / MAY 17, 95 / PAGE    16
      NASTRAN TEST PROBLEM NO. T01-23-1A                                                                                            
0                                                                                                                                   
0    MATRIX  KGG         CONTINUED                                                                                                  
                                                                                                                                    
                                                                                                                                    
0COLUMN     41      ROWS     27 THRU     53     --------------------------------------------------
 
   1.566667D+05  0.000000D+00  1.253333D+06  0.000000D+00  2.730997D+03  0.000000D+00  6.554392D+03  0.000000D+00  6.153846D+04
   0.000000D+00 -2.730997D+03  0.000000D+00 -1.273263D+05  0.000000D+00  3.829584D+06  0.000000D+00  0.000000D+00  0.000000D+00
   0.000000D+00  0.000000D+00  0.000000D+00  0.000000D+00  0.000000D+00  0.000000D+00 -3.589471D+04  0.000000D+00  5.999202D+05
0COLUMN     42      ROWS     26 THRU     54     --------------------------------------------------
 
  -1.566667D+05  0.000000D+00  0.000000D+00  0.000000D+00  1.253333D+06  0.000000D+00 -6.554392D+03  0.000000D+00  2.657470D+04
   0.000000D+00  5.046567D+04  0.000000D+00  1.273263D+05  0.000000D+00  3.896922D+04  0.000000D+00  3.813347D+06  0.000000D+00
   0.000000D+00  0.000000D+00  0.000000D+00  0.000000D+00  0.000000D+00  0.000000D+00  3.589471D+04  0.000000D+00  0.000000D+00
   0.000000D+00  5.999202D+05
0COLUMN     43      ROWS     31 THRU     55     --------------------------------------------------
 
  -5.436000D+05  0.000000D+00  0.000000D+00  0.000000D+00  0.000000D+00  0.000000D+00  0.000000D+00  0.000000D+00  0.000000D+00
   0.000000D+00  0.000000D+00  0.000000D+00  1.087200D+06  0.000000D+00  0.000000D+00  0.000000D+00  0.000000D+00  0.000000D+00
   0.000000D+00  0.000000D+00  0.000000D+00  0.000000D+00  0.000000D+00  0.000000D+00 -5.436000D+05
0COLUMN     44      ROWS     32 THRU     60     --------------------------------------------------
 
  -1.443840D+03  0.000000D+00  0.000000D+00  0.000000D+00  3.609600D+04  0.000000D+00  0.000000D+00  0.000000D+00  0.000000D+00
   0.000000D+00  0.000000D+00  0.000000D+00  2.887680D+03  0.000000D+00  0.000000D+00  0.000000D+00  0.000000D+00  0.000000D+00
   0.000000D+00  0.000000D+00  0.000000D+00  0.000000D+00  0.000000D+00  0.000000D+00 -1.443840D+03  0.000000D+00  0.000000D+00
   0.000000D+00 -3.609600D+04
0COLUMN     45      ROWS     33 THRU     59     --------------------------------------------------
 
  -1.443840D+03  0.000000D+00 -3.609600D+04  0.000000D+00  0.000000D+00  0.000000D+00  0.000000D+00  0.000000D+00  0.000000D+00
   0.000000D+00  0.000000D+00  0.000000D+00  2.887680D+03  0.000000D+00  0.000000D+00  0.000000D+00  0.000000D+00  0.000000D+00
   0.000000D+00  0.000000D+00  0.000000D+00  0.000000D+00  0.000000D+00  0.000000D+00 -1.443840D+03  0.000000D+00  3.609600D+04
0COLUMN     46      ROWS     34 THRU     58     --------------------------------------------------
 
  -2.307692D+05  0.000000D+00  0.000000D+00  0.000000D+00  0.000000D+00  0.000000D+00  0.000000D+00  0.000000D+00  0.000000D+00
   0.000000D+00  0.000000D+00  0.000000D+00  4.615385D+05  0.000000D+00  0.000000D+00  0.000000D+00  0.000000D+00  0.000000D+00
   0.000000D+00  0.000000D+00  0.000000D+00  0.000000D+00  0.000000D+00  0.000000D+00 -2.307692D+05
0COLUMN     47      ROWS     33 THRU     59     --------------------------------------------------
 
   3.609600D+04  0.000000D+00  6.016000D+05  0.000000D+00  0.000000D+00  0.000000D+00  0.000000D+00  0.000000D+00  0.000000D+00
   0.000000D+00  0.000000D+00  0.000000D+00  0.000000D+00  0.000000D+00  2.406400D+06  0.000000D+00  0.000000D+00  0.000000D+00
   0.000000D+00  0.000000D+00  0.000000D+00  0.000000D+00  0.000000D+00  0.000000D+00 -3.609600D+04  0.000000D+00  6.016000D+05
0COLUMN     48      ROWS     32 THRU     60     --------------------------------------------------
 
1     DEMONSTRATION TO USE DUMMOD5, OUTPUT5 AND INPUT5                      /    95 SUN SOLARIS NASTRAN    / MAY 17, 95 / PAGE    17
      NASTRAN TEST PROBLEM NO. T01-23-1A                                                                                            
0                                                                                                                                   
0    MATRIX  KGG         CONTINUED                                                                                                  
                                                                                                                                    
                                                                                                                                    
  -3.609600D+04  0.000000D+00  0.000000D+00  0.000000D+00  6.016000D+05  0.000000D+00  0.000000D+00  0.000000D+00  0.000000D+00
   0.000000D+00  0.000000D+00  0.000000D+00  0.000000D+00  0.000000D+00  0.000000D+00  0.000000D+00  2.406400D+06  0.000000D+00
   0.000000D+00  0.000000D+00  0.000000D+00  0.000000D+00  0.000000D+00  0.000000D+00  3.609600D+04  0.000000D+00  0.000000D+00
   0.000000D+00  6.016000D+05
0COLUMN     49      ROWS     37 THRU     61     --------------------------------------------------
 
  -5.420822D+05  0.000000D+00  0.000000D+00  0.000000D+00  0.000000D+00  0.000000D+00  0.000000D+00  0.000000D+00  0.000000D+00
   0.000000D+00  0.000000D+00  0.000000D+00  1.087208D+06  0.000000D+00  0.000000D+00  0.000000D+00  0.000000D+00  0.000000D+00
   0.000000D+00  0.000000D+00  0.000000D+00  0.000000D+00  0.000000D+00  0.000000D+00 -5.451263D+05
0COLUMN     50      ROWS     38 THRU     66     --------------------------------------------------
 
  -1.431779D+03  0.000000D+00  0.000000D+00  0.000000D+00  3.589471D+04  0.000000D+00  0.000000D+00  0.000000D+00  0.000000D+00
   0.000000D+00  0.000000D+00  0.000000D+00  2.887816D+03  0.000000D+00  0.000000D+00  0.000000D+00 -4.042798D+02  0.000000D+00
   0.000000D+00  0.000000D+00  0.000000D+00  0.000000D+00  0.000000D+00  0.000000D+00 -1.456036D+03  0.000000D+00  0.000000D+00
   0.000000D+00 -3.629899D+04
0COLUMN     51      ROWS     39 THRU     65     --------------------------------------------------
 
  -1.431779D+03  0.000000D+00 -3.589471D+04  0.000000D+00  0.000000D+00  0.000000D+00  0.000000D+00  0.000000D+00  0.000000D+00
   0.000000D+00  0.000000D+00  0.000000D+00  2.887816D+03  0.000000D+00  4.042798D+02  0.000000D+00  0.000000D+00  0.000000D+00
   0.000000D+00  0.000000D+00  0.000000D+00  0.000000D+00  0.000000D+00  0.000000D+00 -1.456036D+03  0.000000D+00  3.629899D+04
0COLUMN     52      ROWS     40 THRU     64     --------------------------------------------------
 
  -2.301249D+05  0.000000D+00  0.000000D+00  0.000000D+00  0.000000D+00  0.000000D+00  0.000000D+00  0.000000D+00  0.000000D+00
   0.000000D+00  0.000000D+00  0.000000D+00  4.615421D+05  0.000000D+00  0.000000D+00  0.000000D+00  0.000000D+00  0.000000D+00
   0.000000D+00  0.000000D+00  0.000000D+00  0.000000D+00  0.000000D+00  0.000000D+00 -2.314172D+05
0COLUMN     53      ROWS     39 THRU     65     --------------------------------------------------
 
   3.589471D+04  0.000000D+00  5.999202D+05  0.000000D+00  0.000000D+00  0.000000D+00  0.000000D+00  0.000000D+00  0.000000D+00
   0.000000D+00  0.000000D+00  0.000000D+00  4.042798D+02  0.000000D+00  2.406419D+06  0.000000D+00  0.000000D+00  0.000000D+00
   0.000000D+00  0.000000D+00  0.000000D+00  0.000000D+00  0.000000D+00  0.000000D+00 -3.629899D+04  0.000000D+00  6.032892D+05
0COLUMN     54      ROWS     38 THRU     66     --------------------------------------------------
 
  -3.589471D+04  0.000000D+00  0.000000D+00  0.000000D+00  5.999202D+05  0.000000D+00  0.000000D+00  0.000000D+00  0.000000D+00
   0.000000D+00  0.000000D+00  0.000000D+00 -4.042798D+02  0.000000D+00  0.000000D+00  0.000000D+00  2.406419D+06  0.000000D+00
   0.000000D+00  0.000000D+00  0.000000D+00  0.000000D+00  0.000000D+00  0.000000D+00  3.629899D+04  0.000000D+00  0.000000D+00
   0.000000D+00  6.032892D+05
0COLUMN     55      ROWS     43 THRU     55     --------------------------------------------------
 
  -5.436000D+05  0.000000D+00  0.000000D+00  0.000000D+00  0.000000D+00  0.000000D+00  0.000000D+00  0.000000D+00  0.000000D+00
   0.000000D+00  0.000000D+00  0.000000D+00  5.436000D+05
1     DEMONSTRATION TO USE DUMMOD5, OUTPUT5 AND INPUT5                      /    95 SUN SOLARIS NASTRAN    / MAY 17, 95 / PAGE    18
      NASTRAN TEST PROBLEM NO. T01-23-1A                                                                                            
0                                                                                                                                   
0    MATRIX  KGG         CONTINUED                                                                                                  
                                                                                                                                    
                                                                                                                                    
0COLUMN     56      ROWS     44 THRU     60     --------------------------------------------------
 
  -1.443840D+03  0.000000D+00  0.000000D+00  0.000000D+00  3.609600D+04  0.000000D+00  0.000000D+00  0.000000D+00  0.000000D+00
   0.000000D+00  0.000000D+00  0.000000D+00  1.443840D+03  0.000000D+00  0.000000D+00  0.000000D+00  3.609600D+04
0COLUMN     57      ROWS     45 THRU     59     --------------------------------------------------
 
  -1.443840D+03  0.000000D+00 -3.609600D+04  0.000000D+00  0.000000D+00  0.000000D+00  0.000000D+00  0.000000D+00  0.000000D+00
   0.000000D+00  0.000000D+00  0.000000D+00  1.443840D+03  0.000000D+00 -3.609600D+04
0COLUMN     58      ROWS     46 THRU     58     --------------------------------------------------
 
  -2.307692D+05  0.000000D+00  0.000000D+00  0.000000D+00  0.000000D+00  0.000000D+00  0.000000D+00  0.000000D+00  0.000000D+00
   0.000000D+00  0.000000D+00  0.000000D+00  2.307692D+05
0COLUMN     59      ROWS     45 THRU     59     --------------------------------------------------
 
   3.609600D+04  0.000000D+00  6.016000D+05  0.000000D+00  0.000000D+00  0.000000D+00  0.000000D+00  0.000000D+00  0.000000D+00
   0.000000D+00  0.000000D+00  0.000000D+00 -3.609600D+04  0.000000D+00  1.203200D+06
0COLUMN     60      ROWS     44 THRU     60     --------------------------------------------------
 
  -3.609600D+04  0.000000D+00  0.000000D+00  0.000000D+00  6.016000D+05  0.000000D+00  0.000000D+00  0.000000D+00  0.000000D+00
   0.000000D+00  0.000000D+00  0.000000D+00  3.609600D+04  0.000000D+00  0.000000D+00  0.000000D+00  1.203200D+06
0COLUMN     61      ROWS     49 THRU     61     --------------------------------------------------
 
  -5.451263D+05  0.000000D+00  0.000000D+00  0.000000D+00  0.000000D+00  0.000000D+00  0.000000D+00  0.000000D+00  0.000000D+00
   0.000000D+00  0.000000D+00  0.000000D+00  5.451263D+05
0COLUMN     62      ROWS     50 THRU     66     --------------------------------------------------
 
  -1.456036D+03  0.000000D+00  0.000000D+00  0.000000D+00  3.629899D+04  0.000000D+00  0.000000D+00  0.000000D+00  0.000000D+00
   0.000000D+00  0.000000D+00  0.000000D+00  1.456036D+03  0.000000D+00  0.000000D+00  0.000000D+00  3.629899D+04
0COLUMN     63      ROWS     51 THRU     65     --------------------------------------------------
 
  -1.456036D+03  0.000000D+00 -3.629899D+04  0.000000D+00  0.000000D+00  0.000000D+00  0.000000D+00  0.000000D+00  0.000000D+00
   0.000000D+00  0.000000D+00  0.000000D+00  1.456036D+03  0.000000D+00 -3.629899D+04
0COLUMN     64      ROWS     52 THRU     64     --------------------------------------------------
 
  -2.314172D+05  0.000000D+00  0.000000D+00  0.000000D+00  0.000000D+00  0.000000D+00  0.000000D+00  0.000000D+00  0.000000D+00
   0.000000D+00  0.000000D+00  0.000000D+00  2.314172D+05
0COLUMN     65      ROWS     51 THRU     65     --------------------------------------------------
 
1     DEMONSTRATION TO USE DUMMOD5, OUTPUT5 AND INPUT5                      /    95 SUN SOLARIS NASTRAN    / MAY 17, 95 / PAGE    19
      NASTRAN TEST PROBLEM NO. T01-23-1A                                                                                            
0                                                                                                                                   
0    MATRIX  KGG         CONTINUED                                                                                                  
                                                                                                                                    
                                                                                                                                    
   3.629899D+04  0.000000D+00  6.032892D+05  0.000000D+00  0.000000D+00  0.000000D+00  0.000000D+00  0.000000D+00  0.000000D+00
   0.000000D+00  0.000000D+00  0.000000D+00 -3.629899D+04  0.000000D+00  1.206578D+06
0COLUMN     66      ROWS     50 THRU     66     --------------------------------------------------
 
  -3.629899D+04  0.000000D+00  0.000000D+00  0.000000D+00  6.032892D+05  0.000000D+00  0.000000D+00  0.000000D+00  0.000000D+00
   0.000000D+00  0.000000D+00  0.000000D+00  3.629899D+04  0.000000D+00  0.000000D+00  0.000000D+00  1.206578D+06
0THE NUMBER OF NON-ZERO WORDS IN THE LONGEST RECORD =      24
0THE DENSITY OF THIS MATRIX IS   8.76 PERCENT.
1     DEMONSTRATION TO USE DUMMOD5, OUTPUT5 AND INPUT5                      /    95 SUN SOLARIS NASTRAN    / MAY 17, 95 / PAGE    20
      NASTRAN TEST PROBLEM NO. T01-23-1A                                                                                            
0                                                                                                                                   
0    MATRIX  KGG         CONTINUED                                                                                                  
                                                                                                                                    
                                                                                                                                    
1     DEMONSTRATION TO USE DUMMOD5, OUTPUT5 AND INPUT5                      /    95 SUN SOLARIS NASTRAN    / MAY 17, 95 / PAGE    21
      NASTRAN TEST PROBLEM NO. T01-23-1A                                                                                            

                                                                                                                                    




0*** USER INFORMATION MESSAGE, MODULE OUTPUT5 CALLED BY USER DMAP ALTER, ON FORMATTD TAPE,
     WITH FOLLOWING REQUEST  (P1=-1)
     REWIND, WRITE A TAPE HEADER RECORD, THEN FOLLOWED BY DATA BLOCKS WRITING.
     AT END, NO EOF AND NO REWIND

     MODULE OUTPUT5 UNPACKED MATRIX DATA BLOCK MYFOOT   AND WROTE IT OUT TO
     FORTRAN UNIT  16, IN BANDED DATA FORM (FIRST TO LAST NON-ZERO ELEMENTS)
         NO. OF COLS =       1
         NO. OF ROWS =      48
                FORM =       2
                TYPE =       1
     SYSTEM BUFFSIZE =    1028
     IN FORTRAN FORMATTED RECORDS - (3I8,/,(10E13.6))

     MODULE OUTPUT5 UNPACKED MATRIX DATA BLOCK KGG      AND WROTE IT OUT TO
     FORTRAN UNIT  16, IN BANDED DATA FORM (FIRST TO LAST NON-ZERO ELEMENTS)
         NO. OF COLS =      66
         NO. OF ROWS =      66
                FORM =       6
                TYPE =       2
     SYSTEM BUFFSIZE =    1028
     IN FORTRAN FORMATTED RECORDS - (3I8,/,(5D26.17))

     SUMMARY FROM OUTPUT5 MODULE

                DATA BLOCKS WRITTEN TO FORTRAN UNIT  16
                 (BY      MACHINE, FORMATTD RECORDS)


                      FILE        NAME        TYPE
                 ------------------------------------
                        1         MYFOOT      MTRX
                        2         KGG         MTRX

     THIS FORMATTED OUTPUT FILE CAN BE VIEWED OR EDITED VIA SYSTEM EDITOR

1     DEMONSTRATION TO USE DUMMOD5, OUTPUT5 AND INPUT5                      /    95 SUN SOLARIS NASTRAN    / MAY 17, 95 / PAGE    22
      NASTRAN TEST PROBLEM NO. T01-23-1A                                                                                            
0                                                                                                                                   
0*** USER INFORMATION MESSAGE, MODULE INPUTT5 CALLED BY USER DMAP ALTER, ON FORMATTD INPUT FILE,
     WITH THE FOLLOWING REQUEST.  (P1=-1)
     REWIND, POSITION PAST TAPE HEADER RECORD, THEN READ TAPE. AT END, NO REWIND

     MODULE INPUTT5 IS NOW PROCESSING TAPE YOURFEET WHICH WAS WRITTEN BY         MACHINE
     ON   5/17/95    SYSTEM BUFFSIZE=    1028
     TAPE IN FORMATTED RECORDS


     MATRIX DATA BLOCK MYFOOT   WAS SUCESSFULLY RECOVERED FROM FORTRAN UNIT  16 TO OMYFOOT 
        GINO UNIT =     201
      NO. OF COLS =       1
      NO. OF ROWS =      48
             FORM =       2
             TYPE =       1
   NON-ZERO WORDS =       8
          DENSITY =    1666

     MATRIX DATA BLOCK KGG      WAS SUCESSFULLY RECOVERED FROM FORTRAN UNIT  16 TO OKGG    
        GINO UNIT =     202
      NO. OF COLS =      66
      NO. OF ROWS =      66
             FORM =       6
             TYPE =       2
   NON-ZERO WORDS =      24
          DENSITY =     876

     SUMMARY FROM INPUTT5 MODLUE -

                                  FILES RECOVERED FROM FORTRAN UNIT   16
                            (WRITTEN BY          MACHINE FORMATTD RECORDS)

                                     FILE        NAME        TYPE
                                 ------------------------------------
                                       1       MYFOOT        MTRX
                                       2       KGG           MTRX
1     DEMONSTRATION TO USE DUMMOD5, OUTPUT5 AND INPUT5                      /    95 SUN SOLARIS NASTRAN    / MAY 17, 95 / PAGE    23
      NASTRAN TEST PROBLEM NO. T01-23-1A                                                                                            
0                                                                                                                                   
0*** USER INFORMATION MESSAGE, MODULE INPUTT5 CALLED BY USER DMAP ALTER, ON BINARY   INPUT FILE,
     WITH THE FOLLOWING REQUEST.  (P1=-1)
     REWIND, POSITION PAST TAPE HEADER RECORD, THEN READ TAPE. AT END, NO REWIND

     MODULE INPUTT5 IS NOW PROCESSING TAPE XXXXXXXX WHICH WAS WRITTEN BY         MACHINE
     ON   5/17/95    SYSTEM BUFFSIZE=    1028
     TAPE IN BINARY RECORDS


     MATRIX DATA BLOCK OQG1     WAS SUCESSFULLY RECOVERED FROM FORTRAN UNIT  15 TO OQG1X   
        GINO UNIT =     201
      NO. OF COLS =       1
      NO. OF ROWS =      48
             FORM =       2
             TYPE =       1
   NON-ZERO WORDS =      13
          DENSITY =    2708

     SUMMARY FROM INPUTT5 MODLUE -

                                  FILES RECOVERED FROM FORTRAN UNIT   15
                            (WRITTEN BY          MACHINE BINARY   RECORDS)

                                     FILE        NAME        TYPE
                                 ------------------------------------
                                       1       OQG1          MTRX
1     DEMONSTRATION TO USE DUMMOD5, OUTPUT5 AND INPUT5                      /    95 SUN SOLARIS NASTRAN    / MAY 17, 95 / PAGE    24
      NASTRAN TEST PROBLEM NO. T01-23-1A                                                                                            
0                                                                                                                                   
0    TABLE   OQG1X                                                                                                                  
                                                                                                                                    
                                                                                                                                    
0*** USER WARNING MESSAGE, TABPRT MODULE ASSUMES ALL REAL DATA ARE IN S.P., D.P. DATA THEREFORE MAY BE PRINTED ERRONEOUSLY

 RECORD NO.     0
          OQG1         X                                                                                                            

 RECORD NO.     1
0STRING NO.    1   ROW POSITION=    4   STRING TYPE=RSP   STRING TRAILERS=YES   NUMBER OF TERMS=    1
   1.1205201E+02
0STRING NO.    2   ROW POSITION=    9   STRING TYPE=RSP   STRING TRAILERS=YES   NUMBER OF TERMS=    1
   0.0000000E+00
0STRING NO.    3   ROW POSITION=   12   STRING TYPE=RSP   STRING TRAILERS=YES   NUMBER OF TERMS=    1
  -1.1997112E+01
0STRING NO.    4   ROW POSITION=   17   STRING TYPE=RSP   STRING TRAILERS=YES   NUMBER OF TERMS=    1
   0.0000000E+00
0STRING NO.    5   ROW POSITION=   20   STRING TYPE=RSP   STRING TRAILERS=YES   NUMBER OF TERMS=    1
   7.4524544E+01
0STRING NO.    6   ROW POSITION=   25   STRING TYPE=RSP   STRING TRAILERS=YES   NUMBER OF TERMS=    1
   0.0000000E+00
0STRING NO.    7   ROW POSITION=   28   STRING TYPE=RSP   STRING TRAILERS=YES   NUMBER OF TERMS=    1
  -1.3160645E+02
0STRING NO.    8   ROW POSITION=   33   STRING TYPE=RSP   STRING TRAILERS=YES   NUMBER OF TERMS=    2
   0.0000000E+00  4.7601303E+02
0STRING NO.    9   ROW POSITION=   36   STRING TYPE=RSP   STRING TRAILERS=YES   NUMBER OF TERMS=    1
   3.4145924E+01
0STRING NO.   10   ROW POSITION=   41   STRING TYPE=RSP   STRING TRAILERS=YES   NUMBER OF TERMS=    2
   0.0000000E+00 -4.7601303E+02
0STRING NO.   11   ROW POSITION=   44   STRING TYPE=RSP   STRING TRAILERS=YES   NUMBER OF TERMS=    1
   3.2881084E+01

 RECORD NO.     2


 END OF FILE
0TRAILER WORD1 =       1 WORD2 =      48 WORD3 =       2 WORD4 =       1 WORD5 =      13 WORD6 =    2708
1     DEMONSTRATION TO USE DUMMOD5, OUTPUT5 AND INPUT5                      /    95 SUN SOLARIS NASTRAN    / MAY 17, 95 / PAGE    25
      NASTRAN TEST PROBLEM NO. T01-23-1A                                                                                            
0                                                                                                                                   
0    TABLE   OMYFOOT                                                                                                                
                                                                                                                                    
                                                                                                                                    

 RECORD NO.     0
          OMYF         OOT                                                                                                          

 RECORD NO.     1
0STRING NO.    1   ROW POSITION=    4   STRING TYPE=RSP   STRING TRAILERS=YES   NUMBER OF TERMS=    1
   1.1205200E+02
0STRING NO.    2   ROW POSITION=   12   STRING TYPE=RSP   STRING TRAILERS=YES   NUMBER OF TERMS=    1
  -1.1997100E+01
0STRING NO.    3   ROW POSITION=   20   STRING TYPE=RSP   STRING TRAILERS=YES   NUMBER OF TERMS=    1
   7.4524498E+01
0STRING NO.    4   ROW POSITION=   28   STRING TYPE=RSP   STRING TRAILERS=YES   NUMBER OF TERMS=    1
  -1.3160600E+02
0STRING NO.    5   ROW POSITION=   34   STRING TYPE=RSP   STRING TRAILERS=YES   NUMBER OF TERMS=    1
   4.7601300E+02
0STRING NO.    6   ROW POSITION=   36   STRING TYPE=RSP   STRING TRAILERS=YES   NUMBER OF TERMS=    1
   3.4145901E+01
0STRING NO.    7   ROW POSITION=   42   STRING TYPE=RSP   STRING TRAILERS=YES   NUMBER OF TERMS=    1
  -4.7601300E+02
0STRING NO.    8   ROW POSITION=   44   STRING TYPE=RSP   STRING TRAILERS=YES   NUMBER OF TERMS=    1
   3.2881100E+01

 RECORD NO.     2


 END OF FILE
0TRAILER WORD1 =       1 WORD2 =      48 WORD3 =       2 WORD4 =       1 WORD5 =       8 WORD6 =    1666
1     DEMONSTRATION TO USE DUMMOD5, OUTPUT5 AND INPUT5                      /    95 SUN SOLARIS NASTRAN    / MAY 17, 95 / PAGE    26
      NASTRAN TEST PROBLEM NO. T01-23-1A                                                                                            
0                                                                                                                                   
0      MATRIX OKGG     (GINO NAME 101 ) IS A D.P.REAL     66 COLUMN X     66 ROW SYMMETRC MATRIX.
0COLUMN      1      ROWS      1 THRU     13     --------------------------------------------------
 
   6.338400D+05  0.000000D+00  0.000000D+00  0.000000D+00 -4.512000D+05  0.000000D+00 -9.024000D+04  0.000000D+00  0.000000D+00
   0.000000D+00 -4.512000D+05  0.000000D+00 -5.436000D+05
0COLUMN      2      ROWS      2 THRU     18     --------------------------------------------------
 
   9.168384D+04  0.000000D+00  4.512000D+05  0.000000D+00 -3.609600D+04  0.000000D+00 -9.024000D+04  0.000000D+00  4.512000D+05
   0.000000D+00  0.000000D+00  0.000000D+00 -1.443840D+03  0.000000D+00  0.000000D+00  0.000000D+00 -3.609600D+04
0COLUMN      3      ROWS      3 THRU     17     --------------------------------------------------
 
   1.360444D+06  0.000000D+00  3.609600D+04  0.000000D+00  0.000000D+00  0.000000D+00 -1.359000D+06  0.000000D+00  0.000000D+00
   0.000000D+00  0.000000D+00  0.000000D+00 -1.443840D+03  0.000000D+00  3.609600D+04
0COLUMN      4      ROWS      2 THRU     16     --------------------------------------------------
 
   4.512000D+05  0.000000D+00  3.238769D+06  0.000000D+00  0.000000D+00  0.000000D+00 -4.512000D+05  0.000000D+00  1.504000D+06
   0.000000D+00  0.000000D+00  0.000000D+00  0.000000D+00  0.000000D+00 -2.307692D+05
0COLUMN      5      ROWS      1 THRU     17     --------------------------------------------------
 
  -4.512000D+05  0.000000D+00  3.609600D+04  0.000000D+00  4.211200D+06  0.000000D+00  4.512000D+05  0.000000D+00  0.000000D+00
   0.000000D+00  1.504000D+06  0.000000D+00  0.000000D+00  0.000000D+00 -3.609600D+04  0.000000D+00  6.016000D+05
0COLUMN      6      ROWS      2 THRU     18     --------------------------------------------------
 
  -3.609600D+04  0.000000D+00  0.000000D+00  0.000000D+00  1.781662D+06  0.000000D+00  0.000000D+00  0.000000D+00  0.000000D+00
   0.000000D+00 -5.784615D+05  0.000000D+00  3.609600D+04  0.000000D+00  0.000000D+00  0.000000D+00  6.016000D+05
0COLUMN      7      ROWS      1 THRU     19     --------------------------------------------------
 
  -9.024000D+04  0.000000D+00  0.000000D+00  0.000000D+00  4.512000D+05  0.000000D+00  6.338400D+05  0.000000D+00  0.000000D+00
   0.000000D+00  4.512000D+05  0.000000D+00  0.000000D+00  0.000000D+00  0.000000D+00  0.000000D+00  0.000000D+00  0.000000D+00
  -5.436000D+05
0COLUMN      8      ROWS      2 THRU     24     --------------------------------------------------
 
  -9.024000D+04  0.000000D+00 -4.512000D+05  0.000000D+00  0.000000D+00  0.000000D+00  9.168384D+04  0.000000D+00 -4.512000D+05
   0.000000D+00 -3.609600D+04  0.000000D+00  0.000000D+00  0.000000D+00  0.000000D+00  0.000000D+00  0.000000D+00  0.000000D+00
  -1.443840D+03  0.000000D+00  0.000000D+00  0.000000D+00 -3.609600D+04
0COLUMN      9      ROWS      3 THRU     23     --------------------------------------------------
 
  -1.359000D+06  0.000000D+00  0.000000D+00  0.000000D+00  0.000000D+00  0.000000D+00  1.360444D+06  0.000000D+00  3.609600D+04
   0.000000D+00  0.000000D+00  0.000000D+00  0.000000D+00  0.000000D+00  0.000000D+00  0.000000D+00  0.000000D+00  0.000000D+00
  -1.443840D+03  0.000000D+00  3.609600D+04
0COLUMN     10      ROWS      2 THRU     22     --------------------------------------------------
 
   4.512000D+05  0.000000D+00  1.504000D+06  0.000000D+00  0.000000D+00  0.000000D+00 -4.512000D+05  0.000000D+00  3.238769D+06
1     DEMONSTRATION TO USE DUMMOD5, OUTPUT5 AND INPUT5                      /    95 SUN SOLARIS NASTRAN    / MAY 17, 95 / PAGE    27
      NASTRAN TEST PROBLEM NO. T01-23-1A                                                                                            
0                                                                                                                                   
0    MATRIX  OKGG        CONTINUED                                                                                                  
                                                                                                                                    
                                                                                                                                    
   0.000000D+00  0.000000D+00  0.000000D+00  0.000000D+00  0.000000D+00  0.000000D+00  0.000000D+00  0.000000D+00  0.000000D+00
   0.000000D+00  0.000000D+00 -2.307692D+05
0COLUMN     11      ROWS      1 THRU     23     --------------------------------------------------
 
  -4.512000D+05  0.000000D+00  0.000000D+00  0.000000D+00  1.504000D+06  0.000000D+00  4.512000D+05  0.000000D+00  3.609600D+04
   0.000000D+00  4.211200D+06  0.000000D+00  0.000000D+00  0.000000D+00  0.000000D+00  0.000000D+00  0.000000D+00  0.000000D+00
   0.000000D+00  0.000000D+00 -3.609600D+04  0.000000D+00  6.016000D+05
0COLUMN     12      ROWS      6 THRU     24     --------------------------------------------------
 
  -5.784615D+05  0.000000D+00 -3.609600D+04  0.000000D+00  0.000000D+00  0.000000D+00  1.781662D+06  0.000000D+00  0.000000D+00
   0.000000D+00  0.000000D+00  0.000000D+00  0.000000D+00  0.000000D+00  3.609600D+04  0.000000D+00  0.000000D+00  0.000000D+00
   6.016000D+05
0COLUMN     13      ROWS      1 THRU     25     --------------------------------------------------
 
  -5.436000D+05  0.000000D+00  0.000000D+00  0.000000D+00  0.000000D+00  0.000000D+00  0.000000D+00  0.000000D+00  0.000000D+00
   0.000000D+00  0.000000D+00  0.000000D+00  1.087200D+06  0.000000D+00  0.000000D+00  0.000000D+00  0.000000D+00  0.000000D+00
   0.000000D+00  0.000000D+00  0.000000D+00  0.000000D+00  0.000000D+00  0.000000D+00 -5.436000D+05
0COLUMN     14      ROWS      2 THRU     30     --------------------------------------------------
 
  -1.443840D+03  0.000000D+00  0.000000D+00  0.000000D+00  3.609600D+04  0.000000D+00  0.000000D+00  0.000000D+00  0.000000D+00
   0.000000D+00  0.000000D+00  0.000000D+00  2.887680D+03  0.000000D+00  0.000000D+00  0.000000D+00  0.000000D+00  0.000000D+00
   0.000000D+00  0.000000D+00  0.000000D+00  0.000000D+00  0.000000D+00  0.000000D+00 -1.443840D+03  0.000000D+00  0.000000D+00
   0.000000D+00 -3.609600D+04
0COLUMN     15      ROWS      3 THRU     29     --------------------------------------------------
 
  -1.443840D+03  0.000000D+00 -3.609600D+04  0.000000D+00  0.000000D+00  0.000000D+00  0.000000D+00  0.000000D+00  0.000000D+00
   0.000000D+00  0.000000D+00  0.000000D+00  2.887680D+03  0.000000D+00  0.000000D+00  0.000000D+00  0.000000D+00  0.000000D+00
   0.000000D+00  0.000000D+00  0.000000D+00  0.000000D+00  0.000000D+00  0.000000D+00 -1.443840D+03  0.000000D+00  3.609600D+04
0COLUMN     16      ROWS      4 THRU     28     --------------------------------------------------
 
  -2.307692D+05  0.000000D+00  0.000000D+00  0.000000D+00  0.000000D+00  0.000000D+00  0.000000D+00  0.000000D+00  0.000000D+00
   0.000000D+00  0.000000D+00  0.000000D+00  4.615385D+05  0.000000D+00  0.000000D+00  0.000000D+00  0.000000D+00  0.000000D+00
   0.000000D+00  0.000000D+00  0.000000D+00  0.000000D+00  0.000000D+00  0.000000D+00 -2.307692D+05
0COLUMN     17      ROWS      3 THRU     29     --------------------------------------------------
 
   3.609600D+04  0.000000D+00  6.016000D+05  0.000000D+00  0.000000D+00  0.000000D+00  0.000000D+00  0.000000D+00  0.000000D+00
   0.000000D+00  0.000000D+00  0.000000D+00  0.000000D+00  0.000000D+00  2.406400D+06  0.000000D+00  0.000000D+00  0.000000D+00
   0.000000D+00  0.000000D+00  0.000000D+00  0.000000D+00  0.000000D+00  0.000000D+00 -3.609600D+04  0.000000D+00  6.016000D+05
0COLUMN     18      ROWS      2 THRU     30     --------------------------------------------------
 
1     DEMONSTRATION TO USE DUMMOD5, OUTPUT5 AND INPUT5                      /    95 SUN SOLARIS NASTRAN    / MAY 17, 95 / PAGE    28
      NASTRAN TEST PROBLEM NO. T01-23-1A                                                                                            
0                                                                                                                                   
0    MATRIX  OKGG        CONTINUED                                                                                                  
                                                                                                                                    
                                                                                                                                    
  -3.609600D+04  0.000000D+00  0.000000D+00  0.000000D+00  6.016000D+05  0.000000D+00  0.000000D+00  0.000000D+00  0.000000D+00
   0.000000D+00  0.000000D+00  0.000000D+00  0.000000D+00  0.000000D+00  0.000000D+00  0.000000D+00  2.406400D+06  0.000000D+00
   0.000000D+00  0.000000D+00  0.000000D+00  0.000000D+00  0.000000D+00  0.000000D+00  3.609600D+04  0.000000D+00  0.000000D+00
   0.000000D+00  6.016000D+05
0COLUMN     19      ROWS      7 THRU     31     --------------------------------------------------
 
  -5.436000D+05  0.000000D+00  0.000000D+00  0.000000D+00  0.000000D+00  0.000000D+00  0.000000D+00  0.000000D+00  0.000000D+00
   0.000000D+00  0.000000D+00  0.000000D+00  1.087200D+06  0.000000D+00  0.000000D+00  0.000000D+00  0.000000D+00  0.000000D+00
   0.000000D+00  0.000000D+00  0.000000D+00  0.000000D+00  0.000000D+00  0.000000D+00 -5.436000D+05
0COLUMN     20      ROWS      8 THRU     36     --------------------------------------------------
 
  -1.443840D+03  0.000000D+00  0.000000D+00  0.000000D+00  3.609600D+04  0.000000D+00  0.000000D+00  0.000000D+00  0.000000D+00
   0.000000D+00  0.000000D+00  0.000000D+00  2.887680D+03  0.000000D+00  0.000000D+00  0.000000D+00  0.000000D+00  0.000000D+00
   0.000000D+00  0.000000D+00  0.000000D+00  0.000000D+00  0.000000D+00  0.000000D+00 -1.443840D+03  0.000000D+00  0.000000D+00
   0.000000D+00 -3.609600D+04
0COLUMN     21      ROWS      9 THRU     35     --------------------------------------------------
 
  -1.443840D+03  0.000000D+00 -3.609600D+04  0.000000D+00  0.000000D+00  0.000000D+00  0.000000D+00  0.000000D+00  0.000000D+00
   0.000000D+00  0.000000D+00  0.000000D+00  2.887680D+03  0.000000D+00  0.000000D+00  0.000000D+00  0.000000D+00  0.000000D+00
   0.000000D+00  0.000000D+00  0.000000D+00  0.000000D+00  0.000000D+00  0.000000D+00 -1.443840D+03  0.000000D+00  3.609600D+04
0COLUMN     22      ROWS     10 THRU     34     --------------------------------------------------
 
  -2.307692D+05  0.000000D+00  0.000000D+00  0.000000D+00  0.000000D+00  0.000000D+00  0.000000D+00  0.000000D+00  0.000000D+00
   0.000000D+00  0.000000D+00  0.000000D+00  4.615385D+05  0.000000D+00  0.000000D+00  0.000000D+00  0.000000D+00  0.000000D+00
   0.000000D+00  0.000000D+00  0.000000D+00  0.000000D+00  0.000000D+00  0.000000D+00 -2.307692D+05
0COLUMN     23      ROWS      9 THRU     35     --------------------------------------------------
 
   3.609600D+04  0.000000D+00  6.016000D+05  0.000000D+00  0.000000D+00  0.000000D+00  0.000000D+00  0.000000D+00  0.000000D+00
   0.000000D+00  0.000000D+00  0.000000D+00  0.000000D+00  0.000000D+00  2.406400D+06  0.000000D+00  0.000000D+00  0.000000D+00
   0.000000D+00  0.000000D+00  0.000000D+00  0.000000D+00  0.000000D+00  0.000000D+00 -3.609600D+04  0.000000D+00  6.016000D+05
0COLUMN     24      ROWS      8 THRU     36     --------------------------------------------------
 
  -3.609600D+04  0.000000D+00  0.000000D+00  0.000000D+00  6.016000D+05  0.000000D+00  0.000000D+00  0.000000D+00  0.000000D+00
   0.000000D+00  0.000000D+00  0.000000D+00  0.000000D+00  0.000000D+00  0.000000D+00  0.000000D+00  2.406400D+06  0.000000D+00
[...]
   0.000000D+00  0.000000D+00  0.000000D+00  0.000000D+00 -3.461539D+04  0.000000D+00  1.566667D+05  0.000000D+00  0.000000D+00
   0.000000D+00  1.253333D+06
0COLUMN     31      ROWS     19 THRU     43     --------------------------------------------------
 
  -5.436000D+05  0.000000D+00  0.000000D+00  0.000000D+00  0.000000D+00  0.000000D+00 -9.600000D+03  0.000000D+00  0.000000D+00
   0.000000D+00  4.800000D+04  0.000000D+00  1.178811D+06  0.000000D+00 -3.394354D+04  0.000000D+00  5.073100D+04  0.000000D+00
  -8.201070D+04  0.000000D+00  3.394354D+04  0.000000D+00  2.730997D+03  0.000000D+00 -5.436000D+05
0COLUMN     32      ROWS     20 THRU     48     --------------------------------------------------
 
  -1.443840D+03  0.000000D+00  0.000000D+00  0.000000D+00  3.609600D+04  0.000000D+00 -9.600000D+03  0.000000D+00 -4.800000D+04
   0.000000D+00  0.000000D+00  0.000000D+00  1.303388D+04  0.000000D+00 -5.073100D+04  0.000000D+00 -6.554392D+03  0.000000D+00
  -5.461994D+02  0.000000D+00 -2.730997D+03  0.000000D+00 -6.554392D+03  0.000000D+00 -1.443840D+03  0.000000D+00  0.000000D+00
   0.000000D+00 -3.609600D+04
0COLUMN     33      ROWS     21 THRU     47     --------------------------------------------------
 
1     DEMONSTRATION TO USE DUMMOD5, OUTPUT5 AND INPUT5                      /    95 SUN SOLARIS NASTRAN    / MAY 17, 95 / PAGE    30
      NASTRAN TEST PROBLEM NO. T01-23-1A                                                                                            
0                                                                                                                                   
0    MATRIX  OKGG        CONTINUED                                                                                                  
                                                                                                                                    
                                                                                                                                    
  -1.443840D+03  0.000000D+00 -3.609600D+04  0.000000D+00  0.000000D+00  0.000000D+00 -2.500000D+05  0.000000D+00  0.000000D+00
   0.000000D+00 -3.394354D+04  0.000000D+00  2.675770D+05  0.000000D+00  6.554392D+03  0.000000D+00  3.394354D+04  0.000000D+00
  -1.468934D+04  0.000000D+00  6.554392D+03  0.000000D+00  0.000000D+00  0.000000D+00 -1.443840D+03  0.000000D+00  3.609600D+04
0COLUMN     34      ROWS     22 THRU     46     --------------------------------------------------
 
  -2.307692D+05  0.000000D+00  0.000000D+00  0.000000D+00  4.800000D+04  0.000000D+00  1.600000D+05  0.000000D+00  0.000000D+00
   0.000000D+00 -5.073100D+04  0.000000D+00  8.110893D+05  0.000000D+00  3.896922D+04  0.000000D+00  2.730997D+03  0.000000D+00
  -2.240819D+03  0.000000D+00  2.657470D+04  0.000000D+00  0.000000D+00  0.000000D+00 -2.307692D+05
0COLUMN     35      ROWS     21 THRU     47     --------------------------------------------------
 
   3.609600D+04  0.000000D+00  6.016000D+05  0.000000D+00 -4.800000D+04  0.000000D+00  0.000000D+00  0.000000D+00  1.600000D+05
   0.000000D+00  5.073100D+04  0.000000D+00  6.554392D+03  0.000000D+00  2.849477D+06  0.000000D+00 -2.730997D+03  0.000000D+00
  -6.554392D+03  0.000000D+00  6.153846D+04  0.000000D+00  0.000000D+00  0.000000D+00 -3.609600D+04  0.000000D+00  6.016000D+05
0COLUMN     36      ROWS     20 THRU     48     --------------------------------------------------
 
  -3.609600D+04  0.000000D+00  0.000000D+00  0.000000D+00  6.016000D+05  0.000000D+00  0.000000D+00  0.000000D+00  0.000000D+00
   0.000000D+00 -3.461539D+04  0.000000D+00 -6.554392D+03  0.000000D+00  3.896922D+04  0.000000D+00  2.547855D+06  0.000000D+00
   6.554392D+03  0.000000D+00  2.657470D+04  0.000000D+00  5.046567D+04  0.000000D+00  3.609600D+04  0.000000D+00  0.000000D+00
   0.000000D+00  6.016000D+05
0COLUMN     37      ROWS     25 THRU     49     --------------------------------------------------
 
  -1.132500D+06  0.000000D+00  0.000000D+00  0.000000D+00  0.000000D+00  0.000000D+00 -8.201070D+04  0.000000D+00  3.394354D+04
   0.000000D+00 -2.730997D+03  0.000000D+00  1.756593D+06  0.000000D+00 -3.394354D+04  0.000000D+00 -2.730997D+03  0.000000D+00
   0.000000D+00  0.000000D+00  0.000000D+00  0.000000D+00  0.000000D+00  0.000000D+00 -5.420822D+05
0COLUMN     38      ROWS     26 THRU     54     --------------------------------------------------
 
  -1.305556D+04  0.000000D+00  0.000000D+00  0.000000D+00  1.566667D+05  0.000000D+00 -5.461994D+02  0.000000D+00  2.730997D+03
   0.000000D+00  6.554392D+03  0.000000D+00  1.503353D+04  0.000000D+00  2.730997D+03  0.000000D+00  1.273263D+05  0.000000D+00
   0.000000D+00  0.000000D+00  0.000000D+00  0.000000D+00  0.000000D+00  0.000000D+00 -1.431779D+03  0.000000D+00  0.000000D+00
   0.000000D+00 -3.589471D+04
0COLUMN     39      ROWS     27 THRU     53     --------------------------------------------------
 
  -1.305556D+04  0.000000D+00 -1.566667D+05  0.000000D+00  3.394354D+04  0.000000D+00 -1.468934D+04  0.000000D+00 -6.554392D+03
   0.000000D+00 -3.394354D+04  0.000000D+00  2.917668D+04  0.000000D+00 -1.273263D+05  0.000000D+00  0.000000D+00  0.000000D+00
   0.000000D+00  0.000000D+00  0.000000D+00  0.000000D+00  0.000000D+00  0.000000D+00 -1.431779D+03  0.000000D+00  3.589471D+04
0COLUMN     40      ROWS     28 THRU     52     --------------------------------------------------
 
  -4.807692D+05  0.000000D+00  0.000000D+00  0.000000D+00 -2.730997D+03  0.000000D+00 -2.240819D+03  0.000000D+00  2.657470D+04
   0.000000D+00  2.730997D+03  0.000000D+00  7.404449D+05  0.000000D+00  3.896922D+04  0.000000D+00  0.000000D+00  0.000000D+00
   0.000000D+00  0.000000D+00  0.000000D+00  0.000000D+00  0.000000D+00  0.000000D+00 -2.301249D+05
1     DEMONSTRATION TO USE DUMMOD5, OUTPUT5 AND INPUT5                      /    95 SUN SOLARIS NASTRAN    / MAY 17, 95 / PAGE    31
      NASTRAN TEST PROBLEM NO. T01-23-1A                                                                                            
0                                                                                                                                   
0    MATRIX  OKGG        CONTINUED                                                                                                  
                                                                                                                                    
                                                                                                                                    
0COLUMN     41      ROWS     27 THRU     53     --------------------------------------------------
 
   1.566667D+05  0.000000D+00  1.253333D+06  0.000000D+00  2.730997D+03  0.000000D+00  6.554392D+03  0.000000D+00  6.153846D+04
   0.000000D+00 -2.730997D+03  0.000000D+00 -1.273263D+05  0.000000D+00  3.829584D+06  0.000000D+00  0.000000D+00  0.000000D+00
   0.000000D+00  0.000000D+00  0.000000D+00  0.000000D+00  0.000000D+00  0.000000D+00 -3.589471D+04  0.000000D+00  5.999202D+05
0COLUMN     42      ROWS     26 THRU     54     --------------------------------------------------
 
  -1.566667D+05  0.000000D+00  0.000000D+00  0.000000D+00  1.253333D+06  0.000000D+00 -6.554392D+03  0.000000D+00  2.657470D+04
   0.000000D+00  5.046567D+04  0.000000D+00  1.273263D+05  0.000000D+00  3.896922D+04  0.000000D+00  3.813347D+06  0.000000D+00
   0.000000D+00  0.000000D+00  0.000000D+00  0.000000D+00  0.000000D+00  0.000000D+00  3.589471D+04  0.000000D+00  0.000000D+00
   0.000000D+00  5.999202D+05
0COLUMN     43      ROWS     31 THRU     55     --------------------------------------------------
 
  -5.436000D+05  0.000000D+00  0.000000D+00  0.000000D+00  0.000000D+00  0.000000D+00  0.000000D+00  0.000000D+00  0.000000D+00
   0.000000D+00  0.000000D+00  0.000000D+00  1.087200D+06  0.000000D+00  0.000000D+00  0.000000D+00  0.000000D+00  0.000000D+00
   0.000000D+00  0.000000D+00  0.000000D+00  0.000000D+00  0.000000D+00  0.000000D+00 -5.436000D+05
0COLUMN     44      ROWS     32 THRU     60     --------------------------------------------------
 
  -1.443840D+03  0.000000D+00  0.000000D+00  0.000000D+00  3.609600D+04  0.000000D+00  0.000000D+00  0.000000D+00  0.000000D+00
   0.000000D+00  0.000000D+00  0.000000D+00  2.887680D+03  0.000000D+00  0.000000D+00  0.000000D+00  0.000000D+00  0.000000D+00
   0.000000D+00  0.000000D+00  0.000000D+00  0.000000D+00  0.000000D+00  0.000000D+00 -1.443840D+03  0.000000D+00  0.000000D+00
   0.000000D+00 -3.609600D+04
0COLUMN     45      ROWS     33 THRU     59     --------------------------------------------------
 
  -1.443840D+03  0.000000D+00 -3.609600D+04  0.000000D+00  0.000000D+00  0.000000D+00  0.000000D+00  0.000000D+00  0.000000D+00
   0.000000D+00  0.000000D+00  0.000000D+00  2.887680D+03  0.000000D+00  0.000000D+00  0.000000D+00  0.000000D+00  0.000000D+00
   0.000000D+00  0.000000D+00  0.000000D+00  0.000000D+00  0.000000D+00  0.000000D+00 -1.443840D+03  0.000000D+00  3.609600D+04
0COLUMN     46      ROWS     34 THRU     58     --------------------------------------------------
 
  -2.307692D+05  0.000000D+00  0.000000D+00  0.000000D+00  0.000000D+00  0.000000D+00  0.000000D+00  0.000000D+00  0.000000D+00
   0.000000D+00  0.000000D+00  0.000000D+00  4.615385D+05  0.000000D+00  0.000000D+00  0.000000D+00  0.000000D+00  0.000000D+00
   0.000000D+00  0.000000D+00  0.000000D+00  0.000000D+00  0.000000D+00  0.000000D+00 -2.307692D+05
0COLUMN     47      ROWS     33 THRU     59     --------------------------------------------------
 
   3.609600D+04  0.000000D+00  6.016000D+05  0.000000D+00  0.000000D+00  0.000000D+00  0.000000D+00  0.000000D+00  0.000000D+00
   0.000000D+00  0.000000D+00  0.000000D+00  0.000000D+00  0.000000D+00  2.406400D+06  0.000000D+00  0.000000D+00  0.000000D+00
   0.000000D+00  0.000000D+00  0.000000D+00  0.000000D+00  0.000000D+00  0.000000D+00 -3.609600D+04  0.000000D+00  6.016000D+05
0COLUMN     48      ROWS     32 THRU     60     --------------------------------------------------
 
1     DEMONSTRATION TO USE DUMMOD5, OUTPUT5 AND INPUT5                      /    95 SUN SOLARIS NASTRAN    / MAY 17, 95 / PAGE    32
      NASTRAN TEST PROBLEM NO. T01-23-1A                                                                                            
0                                                                                                                                   
0    MATRIX  OKGG        CONTINUED                                                                                                  
                                                                                                                                    
                                                                                                                                    
  -3.609600D+04  0.000000D+00  0.000000D+00  0.000000D+00  6.016000D+05  0.000000D+00  0.000000D+00  0.000000D+00  0.000000D+00
   0.000000D+00  0.000000D+00  0.000000D+00  0.000000D+00  0.000000D+00  0.000000D+00  0.000000D+00  2.406400D+06  0.000000D+00
   0.000000D+00  0.000000D+00  0.000000D+00  0.000000D+00  0.000000D+00  0.000000D+00  3.609600D+04  0.000000D+00  0.000000D+00
   0.000000D+00  6.016000D+05
0COLUMN     49      ROWS     37 THRU     61     --------------------------------------------------
 
  -5.420822D+05  0.000000D+00  0.000000D+00  0.000000D+00  0.000000D+00  0.000000D+00  0.000000D+00  0.000000D+00  0.000000D+00
   0.000000D+00  0.000000D+00  0.000000D+00  1.087208D+06  0.000000D+00  0.000000D+00  0.000000D+00  0.000000D+00  0.000000D+00
   0.000000D+00  0.000000D+00  0.000000D+00  0.000000D+00  0.000000D+00  0.000000D+00 -5.451263D+05
0COLUMN     50      ROWS     38 THRU     66     --------------------------------------------------
 
  -1.431779D+03  0.000000D+00  0.000000D+00  0.000000D+00  3.589471D+04  0.000000D+00  0.000000D+00  0.000000D+00  0.000000D+00
   0.000000D+00  0.000000D+00  0.000000D+00  2.887816D+03  0.000000D+00  0.000000D+00  0.000000D+00 -4.042798D+02  0.000000D+00
   0.000000D+00  0.000000D+00  0.000000D+00  0.000000D+00  0.000000D+00  0.000000D+00 -1.456036D+03  0.000000D+00  0.000000D+00
   0.000000D+00 -3.629899D+04
0COLUMN     51      ROWS     39 THRU     65     --------------------------------------------------
 
  -1.431779D+03  0.000000D+00 -3.589471D+04  0.000000D+00  0.000000D+00  0.000000D+00  0.000000D+00  0.000000D+00  0.000000D+00
   0.000000D+00  0.000000D+00  0.000000D+00  2.887816D+03  0.000000D+00  4.042798D+02  0.000000D+00  0.000000D+00  0.000000D+00
   0.000000D+00  0.000000D+00  0.000000D+00  0.000000D+00  0.000000D+00  0.000000D+00 -1.456036D+03  0.000000D+00  3.629899D+04
0COLUMN     52      ROWS     40 THRU     64     --------------------------------------------------
 
  -2.301249D+05  0.000000D+00  0.000000D+00  0.000000D+00  0.000000D+00  0.000000D+00  0.000000D+00  0.000000D+00  0.000000D+00
   0.000000D+00  0.000000D+00  0.000000D+00  4.615421D+05  0.000000D+00  0.000000D+00  0.000000D+00  0.000000D+00  0.000000D+00
   0.000000D+00  0.000000D+00  0.000000D+00  0.000000D+00  0.000000D+00  0.000000D+00 -2.314172D+05
0COLUMN     53      ROWS     39 THRU     65     --------------------------------------------------
 
   3.589471D+04  0.000000D+00  5.999202D+05  0.000000D+00  0.000000D+00  0.000000D+00  0.000000D+00  0.000000D+00  0.000000D+00
   0.000000D+00  0.000000D+00  0.000000D+00  4.042798D+02  0.000000D+00  2.406419D+06  0.000000D+00  0.000000D+00  0.000000D+00
   0.000000D+00  0.000000D+00  0.000000D+00  0.000000D+00  0.000000D+00  0.000000D+00 -3.629899D+04  0.000000D+00  6.032892D+05
0COLUMN     54      ROWS     38 THRU     66     --------------------------------------------------
 
  -3.589471D+04  0.000000D+00  0.000000D+00  0.000000D+00  5.999202D+05  0.000000D+00  0.000000D+00  0.000000D+00  0.000000D+00
   0.000000D+00  0.000000D+00  0.000000D+00 -4.042798D+02  0.000000D+00  0.000000D+00  0.000000D+00  2.406419D+06  0.000000D+00
   0.000000D+00  0.000000D+00  0.000000D+00  0.000000D+00  0.000000D+00  0.000000D+00  3.629899D+04  0.000000D+00  0.000000D+00
   0.000000D+00  6.032892D+05
0COLUMN     55      ROWS     43 THRU     55     --------------------------------------------------
 
  -5.436000D+05  0.000000D+00  0.000000D+00  0.000000D+00  0.000000D+00  0.000000D+00  0.000000D+00  0.000000D+00  0.000000D+00
   0.000000D+00  0.000000D+00  0.000000D+00  5.436000D+05
1     DEMONSTRATION TO USE DUMMOD5, OUTPUT5 AND INPUT5                      /    95 SUN SOLARIS NASTRAN    / MAY 17, 95 / PAGE    33
      NASTRAN TEST PROBLEM NO. T01-23-1A                                                                                            
0                                                                                                                                   
0    MATRIX  OKGG        CONTINUED                                                                                                  
                                                                                                                                    
                                                                                                                                    
0COLUMN     56      ROWS     44 THRU     60     --------------------------------------------------
 
  -1.443840D+03  0.000000D+00  0.000000D+00  0.000000D+00  3.609600D+04  0.000000D+00  0.000000D+00  0.000000D+00  0.000000D+00
   0.000000D+00  0.000000D+00  0.000000D+00  1.443840D+03  0.000000D+00  0.000000D+00  0.000000D+00  3.609600D+04
0COLUMN     57      ROWS     45 THRU     59     --------------------------------------------------
 
  -1.443840D+03  0.000000D+00 -3.609600D+04  0.000000D+00  0.000000D+00  0.000000D+00  0.000000D+00  0.000000D+00  0.000000D+00
   0.000000D+00  0.000000D+00  0.000000D+00  1.443840D+03  0.000000D+00 -3.609600D+04
0COLUMN     58      ROWS     46 THRU     58     --------------------------------------------------
 
  -2.307692D+05  0.000000D+00  0.000000D+00  0.000000D+00  0.000000D+00  0.000000D+00  0.000000D+00  0.000000D+00  0.000000D+00
   0.000000D+00  0.000000D+00  0.000000D+00  2.307692D+05
0COLUMN     59      ROWS     45 THRU     59     --------------------------------------------------
 
   3.609600D+04  0.000000D+00  6.016000D+05  0.000000D+00  0.000000D+00  0.000000D+00  0.000000D+00  0.000000D+00  0.000000D+00
   0.000000D+00  0.000000D+00  0.000000D+00 -3.609600D+04  0.000000D+00  1.203200D+06
0COLUMN     60      ROWS     44 THRU     60     --------------------------------------------------
 
  -3.609600D+04  0.000000D+00  0.000000D+00  0.000000D+00  6.016000D+05  0.000000D+00  0.000000D+00  0.000000D+00  0.000000D+00
   0.000000D+00  0.000000D+00  0.000000D+00  3.609600D+04  0.000000D+00  0.000000D+00  0.000000D+00  1.203200D+06
0COLUMN     61      ROWS     49 THRU     61     --------------------------------------------------
 
  -5.451263D+05  0.000000D+00  0.000000D+00  0.000000D+00  0.000000D+00  0.000000D+00  0.000000D+00  0.000000D+00  0.000000D+00
   0.000000D+00  0.000000D+00  0.000000D+00  5.451263D+05
0COLUMN     62      ROWS     50 THRU     66     --------------------------------------------------
 
  -1.456036D+03  0.000000D+00  0.000000D+00  0.000000D+00  3.629899D+04  0.000000D+00  0.000000D+00  0.000000D+00  0.000000D+00
   0.000000D+00  0.000000D+00  0.000000D+00  1.456036D+03  0.000000D+00  0.000000D+00  0.000000D+00  3.629899D+04
0COLUMN     63      ROWS     51 THRU     65     --------------------------------------------------
 
  -1.456036D+03  0.000000D+00 -3.629899D+04  0.000000D+00  0.000000D+00  0.000000D+00  0.000000D+00  0.000000D+00  0.000000D+00
   0.000000D+00  0.000000D+00  0.000000D+00  1.456036D+03  0.000000D+00 -3.629899D+04
0COLUMN     64      ROWS     52 THRU     64     --------------------------------------------------
 
  -2.314172D+05  0.000000D+00  0.000000D+00  0.000000D+00  0.000000D+00  0.000000D+00  0.000000D+00  0.000000D+00  0.000000D+00
   0.000000D+00  0.000000D+00  0.000000D+00  2.314172D+05
0COLUMN     65      ROWS     51 THRU     65     --------------------------------------------------
 
1     DEMONSTRATION TO USE DUMMOD5, OUTPUT5 AND INPUT5                      /    95 SUN SOLARIS NASTRAN    / MAY 17, 95 / PAGE    34
      NASTRAN TEST PROBLEM NO. T01-23-1A                                                                                            
0                                                                                                                                   
0    MATRIX  OKGG        CONTINUED                                                                                                  
                                                                                                                                    
                                                                                                                                    
   3.629899D+04  0.000000D+00  6.032892D+05  0.000000D+00  0.000000D+00  0.000000D+00  0.000000D+00  0.000000D+00  0.000000D+00
   0.000000D+00  0.000000D+00  0.000000D+00 -3.629899D+04  0.000000D+00  1.206578D+06
0COLUMN     66      ROWS     50 THRU     66     --------------------------------------------------
 
  -3.629899D+04  0.000000D+00  0.000000D+00  0.000000D+00  6.032892D+05  0.000000D+00  0.000000D+00  0.000000D+00  0.000000D+00
   0.000000D+00  0.000000D+00  0.000000D+00  3.629899D+04  0.000000D+00  0.000000D+00  0.000000D+00  1.206578D+06
0THE NUMBER OF NON-ZERO WORDS IN THE LONGEST RECORD =      24
0THE DENSITY OF THIS MATRIX IS   8.76 PERCENT.




                                        * * * END OF JOB * * *
1
 JOB TITLE =  DEMONSTRATION TO USE DUMMOD5, OUTPUT5 AND INPUT5                   
 DATE:  5/17/95
 END TIME: 16:35:36
 TOTAL WALL CLOCK TIME      3 SEC.
 
