     NASTRAN BANDTMTH=2                                                              






                                  ****
                                *      *
                               *        *
                               *  N A S T R A N
                               *        *
                                *      *
                                  ****


                             SUN COMPUTER SYSTEMS    
                                SOLARIS VERSION

                          SYSTEM RELEASE -  1995 ED.

                                DISTRIBUTED BY

         COMPUTER SOFTWARE MANAGEMENT AND INFORMATION CENTER (COSMIC)
                 UNIVERSITY OF GEORGIA, ATHENS, GEORGIA 30602
                 PHONE: (706)542-3265      FAX: (706)542-4807
1                                                                           /    95 SUN SOLARIS NASTRAN    / MAY 17, 95 / PAGE     2
                                                                                                                                    
0                                                                                                                                   
                                                                                                         
                                                                                                         
                         INSTALLATION CENTER USER INFORMATION GIVEN IN THIS SECTION                      
                                                                                                         
                                     *********************************************                       
                                     *                                           *                       
                                     *  PLEASE READ THE COMMENT IN DEMO PROBLEM  *                       
                                     *  D01002A ABOUT SYSTEM TIMING CONSTANTS    *                       
                                     *                                           *                       
                                     *********************************************                       
                                                                                                         
                         ===X=    TOP OF PAGE REQUEST IF 'X' IS REPLACED BY '='                          
                                                                                                         
1                                                                           /    95 SUN SOLARIS NASTRAN    / MAY 17, 95 / PAGE     3
                                                                                                                                    
0                                                                                                                                   
0*** USER INFORMATION MESSAGE 225, GINO TIME CONSTANTS ARE BEING COMPUTED
     (SEE NASINFO FILE FOR ELIMINATION OF THESE COMPUTATIONS)
1                                                                           /    95 SUN SOLARIS NASTRAN    / MAY 17, 95 / PAGE     4
                                                                                                                                    
0        N A S T R A N    E X E C U T I V E    C O N T R O L    D E C K    E C H O                                                  
0                                                                                                                                   
                                                                                                                                    
                                                                                                                                    
     ID    T01211A,NASTRAN                                                           
     DIAG  14                                                                        
     TIME  5                                                                         
     SOL   1                                                                         
     APP   DISP                                                                      
     ALTER 41 $                                                                      
     MATPRN KGGX,,,,//$                                                              
     EXIT $                                                                          
     ENDALTER $                                                                      
     CEND                                                                            


0*** USER INFORMATION MESSAGE, TURN DIAG 48 ON FOR NASTRAN RELEASE NEWS, DIAG DEFINITION, NEW DMAP
         MODULES AND NEW BULKDATA CARDS INFORMATION
1     WEDGE ELEMENT PROBLEM                                                 /    95 SUN SOLARIS NASTRAN    / MAY 17, 95 / PAGE     5
      NASTRAN TEST PROBLEM NO. T01-21-1A                                                                                            
0                                                                                                                                   
0                                        C A S E    C O N T R O L   D E C K   E C H O                                               
                 CARD                                                                                                               
                 COUNT                                                                                                              
                  1      TITLE    = WEDGE ELEMENT PROBLEM                                                
                  2      SUBTITLE = NASTRAN TEST PROBLEM NO. T01-21-1A                                   
                  3      BEGIN BULK                                                                      


                        (NO. OF UNSORTED BULK DATA CARDS READ =    65, INCLUDING   0 COMMENT CARDS)
0*** USER INFORMATION MESSAGE 207, BULK DATA DECK IS NOT SORTED. NASTRAN WILL RE-ORDER THE INPUT DECK.
1     WEDGE ELEMENT PROBLEM                                                 /    95 SUN SOLARIS NASTRAN    / MAY 17, 95 / PAGE     6
      NASTRAN TEST PROBLEM NO. T01-21-1A                                                                                            
0                                                                                                                                   
0                                                 S O R T E D   B U L K    D A T A    E C H O                                       
                     CARD                                                                                                           
                     COUNT        ---1--- +++2+++ ---3--- +++4+++ ---5--- +++6+++ ---7--- +++8+++ ---9--- +++10+++                  
                    1-        CHEXA2  1       1       21      22      23      24      25      26      +C1     
                    2-        +C1     27      28                                                              
                    3-        CTETRA  3       1       31      32      33      35                              
                    4-        CTETRA  5       1       1       2       3       5                               
                    5-        CTETRA  6       1       1       2       3       5                               
                    6-        CTETRA  7       1       1       2       3       6                               
                    7-        CTETRA  8       1       1       2       3       6                               
                    8-        CTETRA  9       1       1       2       3       7                               
                    9-        CTETRA  10      1       1       2       3       7                               
                   10-        CTETRA  11      1       1       5       6       7                               
                   11-        CTETRA  12      1       1       5       6       7                               
                   12-        CTETRA  13      1       2       5       6       7                               
                   13-        CTETRA  14      1       2       5       6       7                               
                   14-        CTETRA  15      1       3       5       6       7                               
                   15-        CTETRA  16      1       3       5       6       7                               
                   16-        CTETRA  17      1       1       2       5       7                               
                   17-        CTETRA  18      1       2       3       5       7                               
                   18-        CTETRA  19      1       1       3       5       6                               
                   19-        CTETRA  20      1       2       3       5       6                               
                   20-        CTETRA  21      1       1       3       6       7                               
                   21-        CTETRA  22      1       1       2       6       7                               
                   22-        CWEDGE  2       1       11      12      13      15      16      17              
                   23-        CWEDGE  4       1       41      43      44      45      47      48              
                   24-        CWEDGE  30      1       41      42      43      45      46      47              
                   25-        GRID    1                                                                       
                   26-        GRID    2               2.                                                      
                   27-        GRID    3               2.      3.                                              
                   28-        GRID    4               0.      3.                                              
                   29-        GRID    5               0.      0.      4.                                      
                   30-        GRID    6               2.      0.      4.                                      
                   31-        GRID    7               2.      3.      4.                                      
                   32-        GRID    8               0.      3.      4.                                      
                   33-        GRID    11                                                                      
                   34-        GRID    12              2.                                                      
                   35-        GRID    13              2.      3.                                              
                   36-        GRID    14              0.      3.                                              
                   37-        GRID    15              0.      0.      4.                                      
                   38-        GRID    16              2.      0.      4.                                      
                   39-        GRID    17              2.      3.      4.                                      
                   40-        GRID    18              0.      3.      4.                                      
                   41-        GRID    21                                                                      
                   42-        GRID    22              2.                                                      
                   43-        GRID    23              2.      3.                                              
                   44-        GRID    24              0.      3.                                              
                   45-        GRID    25              0.      0.      4.                                      
                   46-        GRID    26              2.      0.      4.                                      
                   47-        GRID    27              2.      3.      4.                                      
1     WEDGE ELEMENT PROBLEM                                                 /    95 SUN SOLARIS NASTRAN    / MAY 17, 95 / PAGE     7
      NASTRAN TEST PROBLEM NO. T01-21-1A                                                                                            

                                                                                                                                    

                                                  S O R T E D   B U L K    D A T A    E C H O                                       
                     CARD                                                                                                           
                     COUNT        ---1--- +++2+++ ---3--- +++4+++ ---5--- +++6+++ ---7--- +++8+++ ---9--- +++10+++                  
                   48-        GRID    28              0.      3.      4.                                      
                   49-        GRID    31                                                                      
                   50-        GRID    32              2.                                                      
                   51-        GRID    33              2.      3.                                              
                   52-        GRID    34              0.      3.                                              
                   53-        GRID    35              0.      0.      4.                                      
                   54-        GRID    36              2.      0.      4.                                      
                   55-        GRID    37              2.      3.      4.                                      
                   56-        GRID    38              0.      3.      4.                                      
                   57-        GRID    41                                                                      
                   58-        GRID    42              2.                                                      
                   59-        GRID    43              2.      3.                                              
                   60-        GRID    44              0.      3.                                              
                   61-        GRID    45              0.      0.      4.                                      
                   62-        GRID    46              2.      0.      4.                                      
                   63-        GRID    47              2.      3.      4.                                      
                   64-        GRID    48              0.      3.      4.                                      
                   65-        MAT1    1       3.+7            .3                                              
                              ENDDATA
1     WEDGE ELEMENT PROBLEM                                                 /    95 SUN SOLARIS NASTRAN    / MAY 17, 95 / PAGE     8
      NASTRAN TEST PROBLEM NO. T01-21-1A                                                                                            
0                                                                                                                                   
0         COSMIC / NASTRAN DMAP COMPILER - SOURCE LISTING                                                                           
                                                                                                                                    
                                                                                                                                    
0  OPTIONS IN EFFECT GO      ERR=2   LIST    NODECK  NOREF   NOOSCAR 
   -----------------


       1  BEGIN    DISP 01 - STATIC ANALYSIS - APR. 1995 $                        

       2  FILE     OPTP2=SAVE/EST1=SAVE $                                         

       3  FILE     QG=APPEND/PGG=APPEND/UGV=APPEND/GM=SAVE/KNN=SAVE $             

       4  SETVAL   //V,Y,INTERACT/0/V,Y,SYS21/0 $                                 

       5  PARAM    //*MPY*/CARDNO/0/0 $                                           

       6  COMPOFF  1,INTERACT $                                                   

       7  PRECHK   ALL $                                                          

       8  COMPON   1,INTERACT $                                                   

      10  COMPOFF  LBLINT02,SYS21 $                                               

      11  GP1      GEOM1,GEOM2,/GPL,EQEXIN,GPDT,CSTM,BGPDT,SIL/S,N,LUSET/         
                   NOGPDT/ALWAYS=-1 $                                             

      12  ANISOP   GEOM1,EPT,BGPDT,EQEXIN,MPT/MPTA/S,N,ISOP $                     

      13  EQUIV    MPTA,MPT/ISOP $                                                

      14  PLTTRAN  BGPDT,SIL/BGPDP,SIP/LUSET/S,N,LUSEP $                          

      15  GP2      GEOM2,EQEXIN/ECT $                                             

      16  PARAML   PCDB//*PRES*////JUMPPLOT $                                     

      17  PURGE    PLTSETX,PLTPAR,GPSETS,ELSETS/JUMPPLOT $                        

      18  COND     P1,JUMPPLOT $                                                  

      19  PLTSET   PCDB,EQEXIN,ECT,EPT/PLTSETX,PLTPAR,GPSETS,ELSETS/S,N,NSIL/     
                   S,N,JUMPPLOT $                                                 

      20  PRTMSG   PLTSETX// $                                                    

      21  PARAM    //*MPY*/PLTFLG/1/1 $                                           
1     WEDGE ELEMENT PROBLEM                                                 /    95 SUN SOLARIS NASTRAN    / MAY 17, 95 / PAGE     9
      NASTRAN TEST PROBLEM NO. T01-21-1A                                                                                            

                                                                                                                                    

          COSMIC / NASTRAN DMAP COMPILER - SOURCE LISTING                                                                           
                                                                                                                                    
                                                                                                                                    

      22  PARAM    //*MPY*/PFILE/0/0 $                                            

      23  COND     P1,JUMPPLOT $                                                  

      24  PLOT     PLTPAR,GPSETS,ELSETS,CASECC,BGPDT,EQEXIN,SIL,,ECT,,,,/PLOTX1/  
                   NSIL/LUSET/S,N,JUMPPLOT/S,N,PLTFLG/S,N,PFILE  $                

      25  PRTMSG   PLOTX1// $                                                     

      26  LABEL    P1 $                                                           

      27  GP3      GEOM3,EQEXIN,GEOM2/SLT,GPTT/S,N,NOGRAV/NEVER=1 $               

      28  PARAM    //*AND*/NOMGG/NOGRAV/V,Y,GRDPNT=-1 $                           

      29  TA1      ECT,EPT,BGPDT,SIL,GPTT,CSTM,MPT,EQEXIN/EST,GEI,GPECT,,,MPTX,   
                   PCOMPS,EPTX/LUSET/S,N,NOSIMP/1/S,N,NOGENL/GENEL/S,N,COMPS $    

      30  EQUIV    MPTX,MPT/COMPS/EPTX,EPT/COMPS $                                

      31  PARAM    //*AND*/NOELMT/NOGENL/NOSIMP $                                 

      32  COND     ERROR4,NOELMT $                                                

      33  PURGE    KGGX/NOSIMP $                                                  

      34  OPTPR1   MPT,EPT,ECT,DIT,EST/OPTP1/S,N,PRINT/S,N,TSTART/S,N,COUNT $     

      35  LABEL    LOOPTOP $                                                      

      36  COND     LBL1,NOSIMP $                                                  

      37  PARAM    //*ADD*/NOKGGX/1/0 $                                           

      38  EQUIV    OPTP1,OPTP2/NEVER/EST,EST1/NEVER $                             

      39  EMG      EST,CSTM,MPT,DIT,GEOM2,/KELM,KDICT,MELM,MDICT,,,/S,N,NOKGGX/   
                   S,N,NOMGG////C,Y,COUPMASS/C,Y,CPBAR/                           
                   C,Y,CPROD/C,Y,CPQUAD1/C,Y,CPQUAD2/C,Y,CPTRIA1/C,Y,CPTRIA2/     
                   C,Y,CPTUBE/C,Y,CPQDPLT/C,Y,CPTRPLT/C,Y,CPTRBSC/                
                   C,Y,VOLUME/C,Y,SURFACE $                                       

      40  COND     JMPKGG,NOKGGX $                                                

      41  EMA      GPECT,KDICT,KELM/KGGX $                                        
1     WEDGE ELEMENT PROBLEM                                                 /    95 SUN SOLARIS NASTRAN    / MAY 17, 95 / PAGE    10
      NASTRAN TEST PROBLEM NO. T01-21-1A                                                                                            

                                                                                                                                    

          COSMIC / NASTRAN DMAP COMPILER - SOURCE LISTING                                                                           
                                                                                                                                    
                                                                                                                                    

      41  MATPRN KGGX,,,,//$                                                      

      41  EXIT $                                                                  

      42  LABEL    JMPKGG $                                                       

      43  PURGE    MGG/NOMGG $                                                    

      44  COND     JMPMGG,NOMGG $                                                 

      45  EMA      GPECT,MDICT,MELM/MGG/-1/C,Y,WTMASS=1.0 $                       

      46  PURGE    MDICT,MELM/ALWAYS $                                            

      47  LABEL    JMPMGG $                                                       

      48  COND     LBL1,GRDPNT $                                                  

      49  COND     ERROR2,NOMGG $                                                 

      50  GPWG     BGPDP,CSTM,EQEXIN,MGG/OGPWG/V,Y,GRDPNT/C,Y,WTMASS $            

      51  OFP      OGPWG,,,,,//S,N,CARDNO $                                       

      52  LABEL    LBL1 $                                                         

      53  EQUIV    KGGX,KGG/NOGENL $                                              

      54  COND     LBL11A,NOGENL $                                                

      55  SMA3     GEI,KGGX/KGG/LUSET/NOGENL/NOSIMP $                             

      56  LABEL    LBL11A $                                                       

      57  GPSTGEN  KGG,SIL/GPST $                                                 

      58  PARAM    //*MPY*/NSKIP/0/0 $                                            

      59  LABEL    LBL11 $                                                        

      60  GP4      CASECC,GEOM4,EQEXIN,GPDT,BGPDT,CSTM,GPST/RG,YS,USET,           
                   ASET,OGPST/LUSET/S,N,MPCF1/S,N,MPCF2/S,N,SINGLE/S,N,OMIT/      
                   S,N,REACT/S,N,NSKIP/S,N,REPEAT/S,N,NOSET/S,N,NOL/S,N,NOA/      
                   C,Y,ASETOUT/C,Y,AUTOSPC $                                      

      61  OFP      OGPST,,,,,//S,N,CARDNO $                                       
1     WEDGE ELEMENT PROBLEM                                                 /    95 SUN SOLARIS NASTRAN    / MAY 17, 95 / PAGE    11
      NASTRAN TEST PROBLEM NO. T01-21-1A                                                                                            

                                                                                                                                    

          COSMIC / NASTRAN DMAP COMPILER - SOURCE LISTING                                                                           
                                                                                                                                    
                                                                                                                                    

      62  COND     ERROR3,NOL $                                                   

      63  PARAM    //*AND*/NOSR/SINGLE/REACT $                                    

      64  PURGE    KRR,KLR,QR,DM/REACT/GM/MPCF1/GO,KOO,LOO,PO,UOOV,RUOV/OMIT/PS,  
                   KFS,KSS/SINGLE/QG/NOSR $                                       

      65  EQUIV    KGG,KNN/MPCF1 $                                                

      66  COND     LBL2,MPCF2 $                                                   

      67  MCE1     USET,RG/GM $                                                   

      68  MCE2     USET,GM,KGG,,,/KNN,,, $                                        

      69  LABEL    LBL2 $                                                         

      70  EQUIV    KNN,KFF/SINGLE $                                               

      71  COND     LBL3,SINGLE $                                                  

      72  SCE1     USET,KNN,,,/KFF,KFS,KSS,,, $                                   

      73  LABEL    LBL3 $                                                         

      74  EQUIV    KFF,KAA/OMIT $                                                 

      75  COND     LBL5,OMIT $                                                    

      76  SMP1     USET,KFF,,,/GO,KAA,KOO,LOO,,,,, $                              

      77  LABEL    LBL5 $                                                         

      78  EQUIV    KAA,KLL/REACT $                                                

      79  COND     LBL6,REACT $                                                   

      80  RBMG1    USET,KAA,/KLL,KLR,KRR,,, $                                     

      81  LABEL    LBL6 $                                                         

      82  RBMG2    KLL/LLL $                                                      

      83  COND     LBL7,REACT $                                                   

      84  RBMG3    LLL,KLR,KRR/DM $                                               
1     WEDGE ELEMENT PROBLEM                                                 /    95 SUN SOLARIS NASTRAN    / MAY 17, 95 / PAGE    12
      NASTRAN TEST PROBLEM NO. T01-21-1A                                                                                            

                                                                                                                                    

          COSMIC / NASTRAN DMAP COMPILER - SOURCE LISTING                                                                           
                                                                                                                                    
                                                                                                                                    

      85  LABEL    LBL7 $                                                         

      86  SSG1     SLT,BGPDT,CSTM,SIL,EST,MPT,GPTT,EDT,MGG,CASECC,DIT,PCOMPS/     
                   PG,,,,/LUSET/NSKIP/COMPS $                                     

      87  EQUIV    PG,PL/NOSET $                                                  

      88  COND     LBL10,NOSET $                                                  

      89  SSG2     USET,GM,YS,KFS,GO,DM,PG/QR,PO,PS,PL $                          

      90  LABEL    LBL10 $                                                        

      91  SSG3     LLL,KLL,PL,LOO,KOO,PO/ULV,UOOV,RULV,RUOV/OMIT/V,Y,IRES=-1/     
                   NSKIP/S,N,EPSI $                                               

      92  COND     LBL9,IRES $                                                    

      93  MATGPR   GPL,USET,SIL,RULV//*L* $                                       

      94  MATGPR   GPL,USET,SIL,RUOV//*O* $                                       

      95  LABEL    LBL9 $                                                         

      96  SDR1     USET,PG,ULV,UOOV,YS,GO,GM,PS,KFS,KSS,QR/UGV,PGG,QG/NSKIP/      
                   *STATICS* $                                                    

      97  COND     LBL8,REPEAT $                                                  

      98  REPT     LBL11,360 $                                                    

      99  JUMP     ERROR1 $                                                       

     100  PARAM    //*NOT*/TEST/REPEAT $                                          

     101  COND     ERROR5,TEST $                                                  

     102  LABEL    LBL8 $                                                         

     103  GPFDR    CASECC,UGV,KELM,KDICT,ECT,EQEXIN,GPECT,PGG,QG/ONRGY1,OGPFB1/   
                   *STATICS* $                                                    

     104  PURGE    KDICT,KELM/REPEAT $                                            

     105  OFP      ONRGY1,OGPFB1,,,,//S,N,CARDNO $                                
1     WEDGE ELEMENT PROBLEM                                                 /    95 SUN SOLARIS NASTRAN    / MAY 17, 95 / PAGE    13
      NASTRAN TEST PROBLEM NO. T01-21-1A                                                                                            

                                                                                                                                    

          COSMIC / NASTRAN DMAP COMPILER - SOURCE LISTING                                                                           
                                                                                                                                    
                                                                                                                                    

     106  COND     NOMPCF,GRDEQ $                                                 

     107  EQMCK    CASECC,EQEXIN,GPL,BGPDT,SIL,USET,KGG,GM,UGV,PGG,QG,CSTM/       
                   OQM1/V,Y,OPT=0/V,Y,GRDEQ/NSKIP $                               

     108  OFP      OQM1,,,,,//S,N,CARDNO $                                        

     109  LABEL    NOMPCF $                                                       

     110  SDR2     CASECC,CSTM,MPT,DIT,EQEXIN,SIL,GPTT,EDT,BGPDP,,QG,UGV,EST,     
                   XYCDB,PGG,PCOMPS/OPG1,OQG1,OUGV1,OES1,OEF1,PUGV1,OES1L,        
                   OEF1L/*STATICS*/S,N,NOSORT2/-1/S,N,STRNFLG/COMPS $             

     111  COND     LBLSTRS,STRESS $                                               

     112  CURV     OES1,MPT,CSTM,EST,SIL,GPL/OES1M,OES1G/V,Y,STRESS/              
                   V,Y,NINTPTS $                                                  

     113  LABEL    LBLSTRS $                                                      

     114  PURGE    OES1M/STRESS $                                                 

     115  COND     LBLSTRN,STRNFLG $                                              

     116  SDR2     CASECC,CSTM,MPT,DIT,EQEXIN,SIL,GPTT,EDT,BGPDT,,,UGV,EST,,,/    
                   ,,,OES1A,,,,/*STATICS*//1 $                                    

     117  COND     LBLSTRN,STRAIN $                                               

     118  CURV     OES1A,MPT,CSTM,EST,SIL,GPL/OES1AM,OES1AG/V,Y,STRAIN/           
                   V,Y,NINTPTS $                                                  

     119  LABEL    LBLSTRN $                                                      

     120  PURGE    OES1A/STRNFLG $                                                

     121  COND     LBL17,NOSORT2 $                                                

     122  SDR3     OUGV1,OPG1,OQG1,OEF1,OES1,/OUGV2,OPG2,OQG2,OEF2,OES2, $        

     123  PARAM    //*SUB*/PRTSORT2/NOSORT2/1 $                                   

     124  COND     LBLSORT1,PRTSORT2 $                                            

     125  OFP      OUGV2,OPG2,OQG2,OEF2,OES2,//S,N,CARDNO $                       
1     WEDGE ELEMENT PROBLEM                                                 /    95 SUN SOLARIS NASTRAN    / MAY 17, 95 / PAGE    14
      NASTRAN TEST PROBLEM NO. T01-21-1A                                                                                            

                                                                                                                                    

          COSMIC / NASTRAN DMAP COMPILER - SOURCE LISTING                                                                           
                                                                                                                                    
                                                                                                                                    

     126  SCAN     CASECC,OES2,OEF2,,/OESF2,/*RF* $                               

     127  OFP      OESF2,,,,,//S,N,CARDNO $                                       

     128  JUMP     LBLXYPLT $                                                     

     129  LABEL    LBLSORT1 $                                                     

     130  OFP      OUGV1,OPG1,OQG1,OEF1,OES1,//S,N,CARDNO $                       

     131  OFP      OEF1L,OES1L,,,,//S,N,CARDNO $                                  

     132  SCAN     CASECC,OES1,OEF1,OES1L,OEF1L/OESF1,OESF1L/*RF* $               

     133  OFP      OESF1,OESF1L,,,,//S,N,CARDNO $                                 

     134  LABEL    LBLXYPLT $                                                     

     135  OFP      OES1M,OES1G,OES1A,OES1AM,OES1AG,//S,N,CARDNO $                 

     136  XYTRAN   XYCDB,OPG2,OQG2,OUGV2,OES2,OEF2/XYPLTT/*TRAN*/*PSET*/S,N,      
                   PFILE/S,N,CARDNO $                                             

     137  XYPLOT   XYPLTT// $                                                     

     138  JUMP     DPLOT $                                                        

     139  LABEL    LBL17 $                                                        

     140  PURGE    OUGV2/NOSORT2 $                                                

     141  COND     LBLOFP,COUNT $                                                 

     142  OPTPR2   OPTP1,OES1,EST/OPTP2,EST1/S,N,PRINT/TSTART/S,N,COUNT/S,N,      
                   CARDNO $                                                       

     143  EQUIV    EST1,EST/ALWAYS/OPTP2,OPTP1/ALWAYS $                           

     144  COND     LOOPEND,PRINT $                                                

     145  LABEL    LBLOFP $                                                       

     146  OFP      OUGV1,OPG1,OQG1,OEF1,OES1,//S,N,CARDNO $                       

     147  OFP      OEF1L,OES1L,,,,//S,N,CARDNO $                                  
1     WEDGE ELEMENT PROBLEM                                                 /    95 SUN SOLARIS NASTRAN    / MAY 17, 95 / PAGE    15
      NASTRAN TEST PROBLEM NO. T01-21-1A                                                                                            

                                                                                                                                    

          COSMIC / NASTRAN DMAP COMPILER - SOURCE LISTING                                                                           
                                                                                                                                    
                                                                                                                                    

     148  SCAN     CASECC,OES1,OEF1,OES1L,OEF1L/OESF1X,OESF1Y/*RF* $              

     149  OFP      OESF1X,OESF1Y,,,,//S,N,CARDNO $                                

     150  OFP      OES1M,OES1G,OES1A,OES1AM,OES1AG,//S,N,CARDNO $                 

     151  LABEL    DPLOT $                                                        

     152  COND     P2,JUMPPLOT $                                                  

     153  PLOT     PLTPAR,GPSETS,ELSETS,CASECC,BGPDT,EQEXIN,SIP,PUGV1,,GPECT,OES1,
                   OES1L,ONRGY1/PLOTX2/NSIL/LUSEP/JUMPPLOT/PLTFLG/S,N,PFILE $     

     154  PRTMSG   PLOTX2// $                                                     

     155  LABEL    P2 $                                                           

     156  LABEL    LOOPEND $                                                      

     157  COND     FINIS,COUNT $                                                  

     158  REPT     LOOPTOP,360 $                                                  

     159  JUMP     FINIS $                                                        

     160  LABEL    ERROR1 $                                                       

     161  PRTPARM  //-1/*STATICS* $                                               

     162  LABEL    ERROR2 $                                                       

     163  PRTPARM  //-2/*STATICS* $                                               

     164  LABEL    ERROR3 $                                                       

     165  PRTPARM  //-3/*STATICS* $                                               

     166  LABEL    ERROR4 $                                                       

     167  PRTPARM  //-4/*STATICS* $                                               

     168  LABEL    ERROR5 $                                                       

     169  PRTPARM  //-5/*STATICS* $                                               

     170  LABEL    FINIS $                                                        
1     WEDGE ELEMENT PROBLEM                                                 /    95 SUN SOLARIS NASTRAN    / MAY 17, 95 / PAGE    16
      NASTRAN TEST PROBLEM NO. T01-21-1A                                                                                            

                                                                                                                                    

          COSMIC / NASTRAN DMAP COMPILER - SOURCE LISTING                                                                           
                                                                                                                                    
                                                                                                                                    

     171  PURGE    DUMMY/ALWAYS $                                                 

     172  LABEL    LBLINT02 $                                                     

     173  COMPON   LBLINT01,SYS21 $                                               

     228  END      $                                                              
1     WEDGE ELEMENT PROBLEM                                                 /    95 SUN SOLARIS NASTRAN    / MAY 17, 95 / PAGE    17
      NASTRAN TEST PROBLEM NO. T01-21-1A                                                                                            
0                                                                                                                                   
0*** USER INFORMATION MESSAGES FROM RESEQUENCING PROCESSOR - BANDIT     (CRI= 1,  MTH= 2,  MPC= 0,  DEP=-1,  PCH=-1)

                               BEFORE RESEQUENCING - - -
                                        BANDWIDTH            8
                                        PROFILE            124
                                        MAX WAVEFRONT        8
                                        AVG WAVEFRONT    3.875
                                        RMS WAVEFRONT    4.402
                                        RMS BANDWIDTH    4.402

                               AFTER RESEQUENCING BY REVERSE CUTHILL-MCKEE (CM) ALGORITHM - - -
                                        BANDWIDTH            8
                                        PROFILE            120
                                        MAX WAVEFRONT        8
                                        AVG WAVEFRONT    3.750
                                        RMS WAVEFRONT    4.213
                                        RMS BANDWIDTH    4.213

                               AFTER RESEQUENCING BY GIBBS-POOLE-STOCKMEYER (GPS) ALGORITHM - - -
                                        BANDWIDTH            8
                                        PROFILE            120
                                        MAX WAVEFRONT        8
                                        AVG WAVEFRONT    3.750
                                        RMS WAVEFRONT    4.213
                                        RMS BANDWIDTH    4.213


                                                     *** BANDIT SUMMARY ***

                                                                        BEFORE     AFTER
                                        BANDWIDTH (B)                        8         8
                                        PROFILE (P)                        124       120
                                        MAXIMUM WAVEFRONT (C-MAX)            8         8
                                        AVERAGE WAVEFRONT (C-AVG)        3.875     3.750
                                        RMS WAVEFRONT (C-RMS)            4.402     4.213
                                        RMS BANDWITCH (B-RMS)            4.402     4.213
                                        NUMBER OF GRID POINTS (N)                     40
                                        NUMBER OF ELEMENTS (NON-RIGID)                23
                                        NUMBER OF RIGID ELEMENTS PROCESSED*            0
                                        NUMBER OF MPC  EQUATIONS PROCESSED*            0
                                        NUMBER OF COMPONENTS                           5
                                        MAXIMUM NODAL DEGREE                           7
                                        MINIMUM NODAL DEGREE                           3
                                        NUMBER OF UNIQUE EDGES                        88
                                        MATRIX DENSITY, PERCENT                   20.312
                                        NUMBER OF POINTS OF ZERO DEGREE                0
                                        BANDIT OPEN CORE                         1998969
                                        CRITERION*                         RMS WAVEFRONT
                                        METHOD USED*                          CM AND GPS
                                        NO. OF NON-ACTIVE GRID POINTS                  8
                                        NO. OF SEQGP CARDS GENERATED                  10

                               (* THESE DEFAULT OPTIONS CAN BE OVERRIDDEN BY THE NASTRAN CARD)
1     WEDGE ELEMENT PROBLEM                                                 /    95 SUN SOLARIS NASTRAN    / MAY 17, 95 / PAGE    18
      NASTRAN TEST PROBLEM NO. T01-21-1A                                                                                            
0                                                                                                                                   


                                   S Y S T E M  G E N E R A T E D  S E Q G P  C A R D S

                         SEQGP          1      10       2       9       3       8       4      33
                         SEQGP          5       7       6       6       7       5       8      34
                         SEQGP         11      16      12      15      13      14      14      35
                         SEQGP         15      13      16      12      17      11      18      36
                         SEQGP         21      32      22      31      23      30      24      29
                         SEQGP         25      28      26      27      27      26      28      25
                         SEQGP         31       4      32       3      33       2      34      37
                         SEQGP         35       1      36      38      37      39      38      40
                         SEQGP         41      22      42      18      43      21      44      24
                         SEQGP         45      20      46      17      47      19      48      23
0         **NO ERRORS FOUND - EXECUTE NASTRAN PROGRAM**
0*** USER WARNING MESSAGE 2015, EITHER NO ELEMENTS CONNECTED TO EXTERNAL GRID POINT        4
     OR IT IS CONNECTED TO A RIGID ELEMENT OR A GENERAL ELEMENT.
0*** USER WARNING MESSAGE 2015, EITHER NO ELEMENTS CONNECTED TO EXTERNAL GRID POINT        8
     OR IT IS CONNECTED TO A RIGID ELEMENT OR A GENERAL ELEMENT.
0*** USER WARNING MESSAGE 2015, EITHER NO ELEMENTS CONNECTED TO EXTERNAL GRID POINT       14
     OR IT IS CONNECTED TO A RIGID ELEMENT OR A GENERAL ELEMENT.

0*** USER WARNING MESSAGE 2015, EXTERNAL GRID PT.       18 NOT CONNECTED
0*** USER WARNING MESSAGE 2015, EXTERNAL GRID PT.       34 NOT CONNECTED
0*** USER WARNING MESSAGE 2015, EXTERNAL GRID PT.       36 NOT CONNECTED
0*** USER WARNING MESSAGE 2015, EXTERNAL GRID PT.       37 NOT CONNECTED
0*** USER WARNING MESSAGE 2015, EXTERNAL GRID PT.       38 NOT CONNECTED
0*** USER INFORMATION MESSAGE 238, TURN DIAG 38 ON FOR ADDITIONAL ELEMENT PROCESSING INFORMATION

0*** USER INFORMATION MESSAGE 3113,
     EMG MODULE PROCESSING DOUBLE PRECISION HEXA2    ELEMENTS (ELEMENT TYPE  42) STARTING WITH ID        1
0*** USER INFORMATION MESSAGE 3113,
     EMG MODULE PROCESSING DOUBLE PRECISION TETRA    ELEMENTS (ELEMENT TYPE  39) STARTING WITH ID        3
0*** USER INFORMATION MESSAGE 3113,
     EMG MODULE PROCESSING DOUBLE PRECISION WEDGE    ELEMENTS (ELEMENT TYPE  40) STARTING WITH ID        2
1     WEDGE ELEMENT PROBLEM                                                 /    95 SUN SOLARIS NASTRAN    / MAY 17, 95 / PAGE    19
      NASTRAN TEST PROBLEM NO. T01-21-1A                                                                                            
0                                                                                                                                   
0      MATRIX KGGX     (GINO NAME 101 ) IS A D.P.REAL    240 COLUMN X    240 ROW SYMMETRC MATRIX.
0COLUMN      1      ROWS      1 THRU     21     --------------------------------------------------
 
   2.884616D+06  0.000000D+00  0.000000D+00  0.000000D+00  0.000000D+00  0.000000D+00  0.000000D+00  0.000000D+00  0.000000D+00
   0.000000D+00  0.000000D+00  0.000000D+00  0.000000D+00  0.000000D+00  5.769231D+06  0.000000D+00  0.000000D+00  0.000000D+00
  -2.884616D+06  0.000000D+00 -5.769231D+06
0COLUMN      2      ROWS      2 THRU     20     --------------------------------------------------
 
   2.884616D+06  0.000000D+00  0.000000D+00  0.000000D+00  0.000000D+00  0.000000D+00  0.000000D+00  3.846154D+06  0.000000D+00
   0.000000D+00  0.000000D+00  0.000000D+00  0.000000D+00 -3.846154D+06  0.000000D+00  0.000000D+00  0.000000D+00  0.000000D+00
  -2.884616D+06
0COLUMN      3      ROWS      3 THRU     21     --------------------------------------------------
 
   1.009616D+07  0.000000D+00  0.000000D+00  0.000000D+00  0.000000D+00  5.769232D+06  0.000000D+00  0.000000D+00  0.000000D+00
   0.000000D+00  8.653847D+06 -5.769232D+06  0.000000D+00  0.000000D+00  0.000000D+00  0.000000D+00 -8.653847D+06  0.000000D+00
  -1.009616D+07
0COLUMNS       4 THRU       6 ARE NULL.
0COLUMN      7      ROWS      7 THRU     20     --------------------------------------------------
 
   5.128205D+06  0.000000D+00  0.000000D+00  0.000000D+00  0.000000D+00  0.000000D+00 -5.128205D+06  7.692308D+06  0.000000D+00
   0.000000D+00  0.000000D+00  0.000000D+00  0.000000D+00 -7.692308D+06
0COLUMN      8      ROWS      3 THRU     21     --------------------------------------------------
 
   5.769232D+06  0.000000D+00  0.000000D+00  0.000000D+00  0.000000D+00  1.794872D+07  0.000000D+00  0.000000D+00  0.000000D+00
   0.000000D+00  1.153846D+07 -1.794872D+07  0.000000D+00  0.000000D+00  0.000000D+00  0.000000D+00 -1.153846D+07  0.000000D+00
  -5.769232D+06
0COLUMN      9      ROWS      2 THRU     20     --------------------------------------------------
 
   3.846154D+06  0.000000D+00  0.000000D+00  0.000000D+00  0.000000D+00  0.000000D+00  0.000000D+00  5.128205D+06  0.000000D+00
   0.000000D+00  0.000000D+00  0.000000D+00  0.000000D+00 -5.128205D+06  0.000000D+00  0.000000D+00  0.000000D+00  0.000000D+00
  -3.846154D+06
0COLUMNS      10 THRU      12 ARE NULL.
0COLUMN     13      ROWS      3 THRU     21     --------------------------------------------------
 
   8.653847D+06  0.000000D+00  0.000000D+00  0.000000D+00 -5.128205D+06  1.153846D+07  0.000000D+00  0.000000D+00  0.000000D+00
   0.000000D+00  4.551283D+07 -1.923077D+07  0.000000D+00  0.000000D+00  0.000000D+00  0.000000D+00 -4.038462D+07  7.692308D+06
  -8.653847D+06
0COLUMN     14      ROWS      3 THRU     21     --------------------------------------------------
 
  -5.769232D+06  0.000000D+00  0.000000D+00  0.000000D+00  7.692308D+06 -1.794872D+07  0.000000D+00  0.000000D+00  0.000000D+00
   0.000000D+00 -1.923077D+07  2.948718D+07  0.000000D+00  0.000000D+00  0.000000D+00  0.000000D+00  1.153846D+07 -1.153846D+07
   5.769232D+06
0COLUMN     15      ROWS      1 THRU     21     --------------------------------------------------
 
   5.769231D+06 -3.846154D+06  0.000000D+00  0.000000D+00  0.000000D+00  0.000000D+00  0.000000D+00  0.000000D+00 -5.128205D+06
   0.000000D+00  0.000000D+00  0.000000D+00  0.000000D+00  0.000000D+00  1.666667D+07  0.000000D+00  0.000000D+00  0.000000D+00
  -5.769231D+06  3.846154D+06 -1.153846D+07
1     WEDGE ELEMENT PROBLEM                                                 /    95 SUN SOLARIS NASTRAN    / MAY 17, 95 / PAGE    20
      NASTRAN TEST PROBLEM NO. T01-21-1A                                                                                            
0                                                                                                                                   
0    MATRIX  KGGX        CONTINUED                                                                                                  
                                                                                                                                    
                                                                                                                                    
0COLUMNS      16 THRU      18 ARE NULL.
0COLUMN     19      ROWS      1 THRU     21     --------------------------------------------------
 
  -2.884616D+06  0.000000D+00 -8.653847D+06  0.000000D+00  0.000000D+00  0.000000D+00  0.000000D+00 -1.153846D+07  0.000000D+00
   0.000000D+00  0.000000D+00  0.000000D+00 -4.038462D+07  1.153846D+07 -5.769231D+06  0.000000D+00  0.000000D+00  0.000000D+00
   4.326924D+07  0.000000D+00  1.442308D+07
0COLUMN     20      ROWS      2 THRU     20     --------------------------------------------------
 
  -2.884616D+06  0.000000D+00  0.000000D+00  0.000000D+00  0.000000D+00 -7.692308D+06  0.000000D+00 -3.846154D+06  0.000000D+00
   0.000000D+00  0.000000D+00  7.692308D+06 -1.153846D+07  3.846154D+06  0.000000D+00  0.000000D+00  0.000000D+00  0.000000D+00
   1.442308D+07
0COLUMN     21      ROWS      1 THRU     21     --------------------------------------------------
 
  -5.769231D+06  0.000000D+00 -1.009616D+07  0.000000D+00  0.000000D+00  0.000000D+00  0.000000D+00 -5.769232D+06  0.000000D+00
   0.000000D+00  0.000000D+00  0.000000D+00 -8.653847D+06  5.769232D+06 -1.153846D+07  0.000000D+00  0.000000D+00  0.000000D+00
   1.442308D+07  0.000000D+00  2.163462D+07
0COLUMNS      22 THRU      24 ARE NULL.
0COLUMN     25      ROWS     25 THRU     57     --------------------------------------------------
 
   1.442308D+08 -1.923077D+07  0.000000D+00  0.000000D+00  0.000000D+00  0.000000D+00 -8.141026D+07  6.538462D+07  1.730769D+07
   0.000000D+00  0.000000D+00  0.000000D+00 -4.551283D+07 -4.615385D+07 -1.730769D+07  0.000000D+00  0.000000D+00  0.000000D+00
  -9.807694D+07  1.923077D+07  0.000000D+00  0.000000D+00  0.000000D+00  0.000000D+00  3.525642D+07  3.846153D+06  1.730769D+07
   0.000000D+00  0.000000D+00  0.000000D+00  4.551283D+07 -2.307692D+07 -1.730769D+07
0COLUMN     26      ROWS     25 THRU     57     --------------------------------------------------
 
  -1.923077D+07  2.019231D+08  2.884616D+07  0.000000D+00  0.000000D+00  0.000000D+00  8.846155D+07 -1.551282D+08  5.769233D+06
   0.000000D+00  0.000000D+00  0.000000D+00 -6.923078D+07 -2.948718D+07  1.730769D+07  0.000000D+00  0.000000D+00  0.000000D+00
   1.923077D+07 -4.038462D+07 -5.769233D+06  0.000000D+00  0.000000D+00  0.000000D+00  1.538462D+07 -6.410259D+06 -2.884616D+07
   0.000000D+00  0.000000D+00  0.000000D+00 -3.461539D+07  2.948718D+07 -1.730769D+07
0COLUMN     27      ROWS     26 THRU     57     --------------------------------------------------
 
   2.884616D+07  1.298077D+08  0.000000D+00  0.000000D+00  0.000000D+00  2.596154D+07 -5.769233D+06 -5.256410D+07  0.000000D+00
   0.000000D+00  0.000000D+00 -2.596154D+07  1.153846D+07 -1.666667D+07  0.000000D+00  0.000000D+00  0.000000D+00  0.000000D+00
   5.769233D+06 -8.365386D+07  0.000000D+00  0.000000D+00  0.000000D+00  2.596154D+07 -2.884616D+07  6.410257D+06  0.000000D+00
   0.000000D+00  0.000000D+00 -2.596154D+07 -1.153846D+07  1.666667D+07
0COLUMNS      28 THRU      30 ARE NULL.
0COLUMN     31      ROWS     25 THRU     57     --------------------------------------------------
 
1     WEDGE ELEMENT PROBLEM                                                 /    95 SUN SOLARIS NASTRAN    / MAY 17, 95 / PAGE    21
      NASTRAN TEST PROBLEM NO. T01-21-1A                                                                                            
0                                                                                                                                   
0    MATRIX  KGGX        CONTINUED                                                                                                  
                                                                                                                                    
                                                                                                                                    
  -8.141026D+07  8.846155D+07  2.596154D+07  0.000000D+00  0.000000D+00  0.000000D+00  4.269231D+08 -1.538462D+08  4.326924D+07
   0.000000D+00  0.000000D+00  0.000000D+00 -3.282052D+08  6.538462D+07  8.653849D+06  0.000000D+00  0.000000D+00  0.000000D+00
   3.525642D+07  1.538462D+07 -2.596154D+07  0.000000D+00  0.000000D+00  0.000000D+00 -1.730769D+07 -1.923077D+07 -8.653849D+06
   0.000000D+00  0.000000D+00  0.000000D+00 -3.525642D+07  3.846153D+06 -4.326924D+07
0COLUMN     32      ROWS     25 THRU     57     --------------------------------------------------
 
   6.538462D+07 -1.551282D+08 -5.769233D+06  0.000000D+00  0.000000D+00  0.000000D+00 -1.538462D+08  2.826923D+08 -2.884616D+07
   0.000000D+00  0.000000D+00  0.000000D+00  8.846155D+07 -1.102564D+08 -1.730769D+07  0.000000D+00  0.000000D+00  0.000000D+00
   3.846153D+06 -6.410259D+06  2.884616D+07  0.000000D+00  0.000000D+00  0.000000D+00 -1.923077D+07 -1.730769D+07  5.769233D+06
   0.000000D+00  0.000000D+00  0.000000D+00  1.538462D+07  6.410259D+06  1.730769D+07
0COLUMN     33      ROWS     25 THRU     57     --------------------------------------------------
 
   1.730769D+07  5.769233D+06 -5.256410D+07  0.000000D+00  0.000000D+00  0.000000D+00  4.326924D+07 -2.884616D+07  2.105769D+08
   0.000000D+00  0.000000D+00  0.000000D+00 -8.653849D+06 -1.153846D+07 -9.743590D+07  0.000000D+00  0.000000D+00  0.000000D+00
  -1.730769D+07  2.884616D+07  6.410257D+06  0.000000D+00  0.000000D+00  0.000000D+00  8.653849D+06 -5.769233D+06 -6.057693D+07
   0.000000D+00  0.000000D+00  0.000000D+00 -4.326924D+07  1.153846D+07 -6.410257D+06
0COLUMNS      34 THRU      36 ARE NULL.
0COLUMN     37      ROWS     25 THRU     57     --------------------------------------------------
 
  -4.551283D+07 -6.923078D+07 -2.596154D+07  0.000000D+00  0.000000D+00  0.000000D+00 -3.282052D+08  8.846155D+07 -8.653849D+06
   0.000000D+00  0.000000D+00  0.000000D+00  3.910257D+08 -1.923077D+07 -4.326924D+07  0.000000D+00  0.000000D+00  0.000000D+00
   4.551283D+07 -3.461539D+07  2.596154D+07  0.000000D+00  0.000000D+00  0.000000D+00 -3.525642D+07  1.538462D+07  4.326924D+07
   0.000000D+00  0.000000D+00  0.000000D+00 -2.756410D+07  1.923077D+07  8.653849D+06
0COLUMN     38      ROWS     25 THRU     56     --------------------------------------------------
 
  -4.615385D+07 -2.948718D+07  1.153846D+07  0.000000D+00  0.000000D+00  0.000000D+00  6.538462D+07 -1.102564D+08 -1.153846D+07
   0.000000D+00  0.000000D+00  0.000000D+00 -1.923077D+07  1.570513D+08  0.000000D+00  0.000000D+00  0.000000D+00  0.000000D+00
  -2.307692D+07  2.948718D+07  1.153846D+07  0.000000D+00  0.000000D+00  0.000000D+00  3.846153D+06  6.410259D+06 -1.153846D+07
   0.000000D+00  0.000000D+00  0.000000D+00  1.923077D+07 -5.320513D+07
0COLUMN     39      ROWS     25 THRU     57     --------------------------------------------------
 
  -1.730769D+07  1.730769D+07 -1.666667D+07  0.000000D+00  0.000000D+00  0.000000D+00  8.653849D+06 -1.730769D+07 -9.743590D+07
   0.000000D+00  0.000000D+00  0.000000D+00 -4.326924D+07  0.000000D+00  1.746795D+08  0.000000D+00  0.000000D+00  0.000000D+00
   1.730769D+07  1.730769D+07  1.666667D+07  0.000000D+00  0.000000D+00  0.000000D+00  4.326924D+07 -1.730769D+07 -6.410257D+06
   0.000000D+00  0.000000D+00  0.000000D+00 -8.653849D+06  0.000000D+00 -7.083334D+07
0COLUMNS      40 THRU      42 ARE NULL.
0COLUMN     43      ROWS     25 THRU     57     --------------------------------------------------
 
  -9.807694D+07  1.923077D+07  0.000000D+00  0.000000D+00  0.000000D+00  0.000000D+00  3.525642D+07  3.846153D+06 -1.730769D+07
1     WEDGE ELEMENT PROBLEM                                                 /    95 SUN SOLARIS NASTRAN    / MAY 17, 95 / PAGE    22
      NASTRAN TEST PROBLEM NO. T01-21-1A                                                                                            
0                                                                                                                                   
0    MATRIX  KGGX        CONTINUED                                                                                                  
                                                                                                                                    
                                                                                                                                    
   0.000000D+00  0.000000D+00  0.000000D+00  4.551283D+07 -2.307692D+07  1.730769D+07  0.000000D+00  0.000000D+00  0.000000D+00
   1.442308D+08 -1.923077D+07  0.000000D+00  0.000000D+00  0.000000D+00  0.000000D+00 -8.141026D+07  6.538462D+07 -1.730769D+07
   0.000000D+00  0.000000D+00  0.000000D+00 -4.551283D+07 -4.615385D+07  1.730769D+07
0COLUMN     44      ROWS     25 THRU     57     --------------------------------------------------
 
   1.923077D+07 -4.038462D+07  5.769233D+06  0.000000D+00  0.000000D+00  0.000000D+00  1.538462D+07 -6.410259D+06  2.884616D+07
   0.000000D+00  0.000000D+00  0.000000D+00 -3.461539D+07  2.948718D+07  1.730769D+07  0.000000D+00  0.000000D+00  0.000000D+00
  -1.923077D+07  2.019231D+08 -2.884616D+07  0.000000D+00  0.000000D+00  0.000000D+00  8.846155D+07 -1.551282D+08 -5.769233D+06
   0.000000D+00  0.000000D+00  0.000000D+00 -6.923078D+07 -2.948718D+07 -1.730769D+07
0COLUMN     45      ROWS     26 THRU     57     --------------------------------------------------
 
  -5.769233D+06 -8.365386D+07  0.000000D+00  0.000000D+00  0.000000D+00 -2.596154D+07  2.884616D+07  6.410257D+06  0.000000D+00
   0.000000D+00  0.000000D+00  2.596154D+07  1.153846D+07  1.666667D+07  0.000000D+00  0.000000D+00  0.000000D+00  0.000000D+00
  -2.884616D+07  1.298077D+08  0.000000D+00  0.000000D+00  0.000000D+00 -2.596154D+07  5.769233D+06 -5.256410D+07  0.000000D+00
   0.000000D+00  0.000000D+00  2.596154D+07 -1.153846D+07 -1.666667D+07
0COLUMNS      46 THRU      48 ARE NULL.
0COLUMN     49      ROWS     25 THRU     57     --------------------------------------------------
 
   3.525642D+07  1.538462D+07  2.596154D+07  0.000000D+00  0.000000D+00  0.000000D+00 -1.730769D+07 -1.923077D+07  8.653849D+06
   0.000000D+00  0.000000D+00  0.000000D+00 -3.525642D+07  3.846153D+06  4.326924D+07  0.000000D+00  0.000000D+00  0.000000D+00
  -8.141026D+07  8.846155D+07 -2.596154D+07  0.000000D+00  0.000000D+00  0.000000D+00  4.269231D+08 -1.538462D+08 -4.326924D+07
   0.000000D+00  0.000000D+00  0.000000D+00 -3.282052D+08  6.538462D+07 -8.653849D+06
0COLUMN     50      ROWS     25 THRU     57     --------------------------------------------------
 
   3.846153D+06 -6.410259D+06 -2.884616D+07  0.000000D+00  0.000000D+00  0.000000D+00 -1.923077D+07 -1.730769D+07 -5.769233D+06
   0.000000D+00  0.000000D+00  0.000000D+00  1.538462D+07  6.410259D+06 -1.730769D+07  0.000000D+00  0.000000D+00  0.000000D+00
   6.538462D+07 -1.551282D+08  5.769233D+06  0.000000D+00  0.000000D+00  0.000000D+00 -1.538462D+08  2.826923D+08  2.884616D+07
   0.000000D+00  0.000000D+00  0.000000D+00  8.846155D+07 -1.102564D+08  1.730769D+07
0COLUMN     51      ROWS     25 THRU     57     --------------------------------------------------
 
   1.730769D+07 -2.884616D+07  6.410257D+06  0.000000D+00  0.000000D+00  0.000000D+00 -8.653849D+06  5.769233D+06 -6.057693D+07
   0.000000D+00  0.000000D+00  0.000000D+00  4.326924D+07 -1.153846D+07 -6.410257D+06  0.000000D+00  0.000000D+00  0.000000D+00
  -1.730769D+07 -5.769233D+06 -5.256410D+07  0.000000D+00  0.000000D+00  0.000000D+00 -4.326924D+07  2.884616D+07  2.105769D+08
   0.000000D+00  0.000000D+00  0.000000D+00  8.653849D+06  1.153846D+07 -9.743590D+07
0COLUMNS      52 THRU      54 ARE NULL.
0COLUMN     55      ROWS     25 THRU     57     --------------------------------------------------
 
   4.551283D+07 -3.461539D+07 -2.596154D+07  0.000000D+00  0.000000D+00  0.000000D+00 -3.525642D+07  1.538462D+07 -4.326924D+07
   0.000000D+00  0.000000D+00  0.000000D+00 -2.756410D+07  1.923077D+07 -8.653849D+06  0.000000D+00  0.000000D+00  0.000000D+00
1     WEDGE ELEMENT PROBLEM                                                 /    95 SUN SOLARIS NASTRAN    / MAY 17, 95 / PAGE    23
      NASTRAN TEST PROBLEM NO. T01-21-1A                                                                                            
0                                                                                                                                   
0    MATRIX  KGGX        CONTINUED                                                                                                  
                                                                                                                                    
                                                                                                                                    
  -4.551283D+07 -6.923078D+07  2.596154D+07  0.000000D+00  0.000000D+00  0.000000D+00 -3.282052D+08  8.846155D+07  8.653849D+06
   0.000000D+00  0.000000D+00  0.000000D+00  3.910257D+08 -1.923077D+07  4.326924D+07
0COLUMN     56      ROWS     25 THRU     56     --------------------------------------------------
 
  -2.307692D+07  2.948718D+07 -1.153846D+07  0.000000D+00  0.000000D+00  0.000000D+00  3.846153D+06  6.410259D+06  1.153846D+07
   0.000000D+00  0.000000D+00  0.000000D+00  1.923077D+07 -5.320513D+07  0.000000D+00  0.000000D+00  0.000000D+00  0.000000D+00
  -4.615385D+07 -2.948718D+07 -1.153846D+07  0.000000D+00  0.000000D+00  0.000000D+00  6.538462D+07 -1.102564D+08  1.153846D+07
   0.000000D+00  0.000000D+00  0.000000D+00 -1.923077D+07  1.570513D+08
0COLUMN     57      ROWS     25 THRU     57     --------------------------------------------------
 
  -1.730769D+07 -1.730769D+07  1.666667D+07  0.000000D+00  0.000000D+00  0.000000D+00 -4.326924D+07  1.730769D+07 -6.410257D+06
   0.000000D+00  0.000000D+00  0.000000D+00  8.653849D+06  0.000000D+00 -7.083334D+07  0.000000D+00  0.000000D+00  0.000000D+00
   1.730769D+07 -1.730769D+07 -1.666667D+07  0.000000D+00  0.000000D+00  0.000000D+00 -8.653849D+06  1.730769D+07 -9.743590D+07
   0.000000D+00  0.000000D+00  0.000000D+00  4.326924D+07  0.000000D+00  1.746795D+08
0COLUMNS      58 THRU      60 ARE NULL.
0COLUMN     61      ROWS     61 THRU     93     --------------------------------------------------
 
   2.403846D+07 -3.205129D+06  0.000000D+00  0.000000D+00  0.000000D+00  0.000000D+00 -1.356838D+07  1.089744D+07  2.884616D+06
   0.000000D+00  0.000000D+00  0.000000D+00 -7.585471D+06 -7.692308D+06 -2.884616D+06  0.000000D+00  0.000000D+00  0.000000D+00
  -1.634616D+07  3.205129D+06  0.000000D+00  0.000000D+00  0.000000D+00  0.000000D+00  5.876069D+06  6.410255D+05  2.884616D+06
   0.000000D+00  0.000000D+00  0.000000D+00  7.585471D+06 -3.846154D+06 -2.884616D+06
0COLUMN     62      ROWS     61 THRU     93     --------------------------------------------------
 
  -3.205129D+06  3.365385D+07  4.807693D+06  0.000000D+00  0.000000D+00  0.000000D+00  1.474359D+07 -2.585470D+07  9.615388D+05
   0.000000D+00  0.000000D+00  0.000000D+00 -1.153846D+07 -4.914530D+06  2.884616D+06  0.000000D+00  0.000000D+00  0.000000D+00
   3.205129D+06 -6.730770D+06 -9.615388D+05  0.000000D+00  0.000000D+00  0.000000D+00  2.564103D+06 -1.068376D+06 -4.807693D+06
   0.000000D+00  0.000000D+00  0.000000D+00 -5.769232D+06  4.914530D+06 -2.884616D+06
0COLUMN     63      ROWS     62 THRU     93     --------------------------------------------------
 
   4.807693D+06  2.163462D+07  0.000000D+00  0.000000D+00  0.000000D+00  4.326924D+06 -9.615388D+05 -8.760684D+06  0.000000D+00
   0.000000D+00  0.000000D+00 -4.326924D+06  1.923077D+06 -2.777778D+06  0.000000D+00  0.000000D+00  0.000000D+00  0.000000D+00
   9.615388D+05 -1.394231D+07  0.000000D+00  0.000000D+00  0.000000D+00  4.326924D+06 -4.807693D+06  1.068376D+06  0.000000D+00
   0.000000D+00  0.000000D+00 -4.326924D+06 -1.923077D+06  2.777778D+06
0COLUMNS      64 THRU      66 ARE NULL.
0COLUMN     67      ROWS     61 THRU     93     --------------------------------------------------
 
  -1.356838D+07  1.474359D+07  4.326924D+06  0.000000D+00  0.000000D+00  0.000000D+00  7.115386D+07 -2.564103D+07  7.211539D+06
   0.000000D+00  0.000000D+00  0.000000D+00 -5.470086D+07  1.089744D+07  1.442308D+06  0.000000D+00  0.000000D+00  0.000000D+00
   5.876069D+06  2.564103D+06 -4.326924D+06  0.000000D+00  0.000000D+00  0.000000D+00 -2.884616D+06 -3.205129D+06 -1.442308D+06
1     WEDGE ELEMENT PROBLEM                                                 /    95 SUN SOLARIS NASTRAN    / MAY 17, 95 / PAGE    24
      NASTRAN TEST PROBLEM NO. T01-21-1A                                                                                            
0                                                                                                                                   
0    MATRIX  KGGX        CONTINUED                                                                                                  
                                                                                                                                    
                                                                                                                                    
   0.000000D+00  0.000000D+00  0.000000D+00 -5.876069D+06  6.410255D+05 -7.211539D+06
0COLUMN     68      ROWS     61 THRU     93     --------------------------------------------------
 
   1.089744D+07 -2.585470D+07 -9.615388D+05  0.000000D+00  0.000000D+00  0.000000D+00 -2.564103D+07  4.711539D+07 -4.807693D+06
   0.000000D+00  0.000000D+00  0.000000D+00  1.474359D+07 -1.837607D+07 -2.884616D+06  0.000000D+00  0.000000D+00  0.000000D+00
   6.410255D+05 -1.068376D+06  4.807693D+06  0.000000D+00  0.000000D+00  0.000000D+00 -3.205129D+06 -2.884616D+06  9.615388D+05
   0.000000D+00  0.000000D+00  0.000000D+00  2.564103D+06  1.068376D+06  2.884616D+06
0COLUMN     69      ROWS     61 THRU     93     --------------------------------------------------
 
   2.884616D+06  9.615388D+05 -8.760684D+06  0.000000D+00  0.000000D+00  0.000000D+00  7.211539D+06 -4.807693D+06  3.509616D+07
   0.000000D+00  0.000000D+00  0.000000D+00 -1.442308D+06 -1.923077D+06 -1.623932D+07  0.000000D+00  0.000000D+00  0.000000D+00
  -2.884616D+06  4.807693D+06  1.068376D+06  0.000000D+00  0.000000D+00  0.000000D+00  1.442308D+06 -9.615388D+05 -1.009616D+07
   0.000000D+00  0.000000D+00  0.000000D+00 -7.211539D+06  1.923077D+06 -1.068376D+06
0COLUMNS      70 THRU      72 ARE NULL.
0COLUMN     73      ROWS     61 THRU     93     --------------------------------------------------
 
  -7.585471D+06 -1.153846D+07 -4.326924D+06  0.000000D+00  0.000000D+00  0.000000D+00 -5.470086D+07  1.474359D+07 -1.442308D+06
   0.000000D+00  0.000000D+00  0.000000D+00  6.517095D+07 -3.205129D+06 -7.211539D+06  0.000000D+00  0.000000D+00  0.000000D+00
   7.585471D+06 -5.769232D+06  4.326924D+06  0.000000D+00  0.000000D+00  0.000000D+00 -5.876069D+06  2.564103D+06  7.211539D+06
   0.000000D+00  0.000000D+00  0.000000D+00 -4.594017D+06  3.205129D+06  1.442308D+06
0COLUMN     74      ROWS     61 THRU     92     --------------------------------------------------
 
  -7.692308D+06 -4.914530D+06  1.923077D+06  0.000000D+00  0.000000D+00  0.000000D+00  1.089744D+07 -1.837607D+07 -1.923077D+06
   0.000000D+00  0.000000D+00  0.000000D+00 -3.205129D+06  2.617522D+07  0.000000D+00  0.000000D+00  0.000000D+00  0.000000D+00
  -3.846154D+06  4.914530D+06  1.923077D+06  0.000000D+00  0.000000D+00  0.000000D+00  6.410255D+05  1.068376D+06 -1.923077D+06
   0.000000D+00  0.000000D+00  0.000000D+00  3.205129D+06 -8.867522D+06
0COLUMN     75      ROWS     61 THRU     93     --------------------------------------------------
 
  -2.884616D+06  2.884616D+06 -2.777778D+06  0.000000D+00  0.000000D+00  0.000000D+00  1.442308D+06 -2.884616D+06 -1.623932D+07
   0.000000D+00  0.000000D+00  0.000000D+00 -7.211539D+06  0.000000D+00  2.911325D+07  0.000000D+00  0.000000D+00  0.000000D+00
   2.884616D+06  2.884616D+06  2.777778D+06  0.000000D+00  0.000000D+00  0.000000D+00  7.211539D+06 -2.884616D+06 -1.068376D+06
   0.000000D+00  0.000000D+00  0.000000D+00 -1.442308D+06  0.000000D+00 -1.180556D+07
0COLUMNS      76 THRU      78 ARE NULL.
0COLUMN     79      ROWS     61 THRU     93     --------------------------------------------------
 
  -1.634616D+07  3.205129D+06  0.000000D+00  0.000000D+00  0.000000D+00  0.000000D+00  5.876069D+06  6.410255D+05 -2.884616D+06
   0.000000D+00  0.000000D+00  0.000000D+00  7.585471D+06 -3.846154D+06  2.884616D+06  0.000000D+00  0.000000D+00  0.000000D+00
   2.403846D+07 -3.205129D+06  0.000000D+00  0.000000D+00  0.000000D+00  0.000000D+00 -1.356838D+07  1.089744D+07 -2.884616D+06
   0.000000D+00  0.000000D+00  0.000000D+00 -7.585471D+06 -7.692308D+06  2.884616D+06
1     WEDGE ELEMENT PROBLEM                                                 /    95 SUN SOLARIS NASTRAN    / MAY 17, 95 / PAGE    25
      NASTRAN TEST PROBLEM NO. T01-21-1A                                                                                            
0                                                                                                                                   
0    MATRIX  KGGX        CONTINUED                                                                                                  
                                                                                                                                    
                                                                                                                                    
0COLUMN     80      ROWS     61 THRU     93     --------------------------------------------------
 
   3.205129D+06 -6.730770D+06  9.615388D+05  0.000000D+00  0.000000D+00  0.000000D+00  2.564103D+06 -1.068376D+06  4.807693D+06
   0.000000D+00  0.000000D+00  0.000000D+00 -5.769232D+06  4.914530D+06  2.884616D+06  0.000000D+00  0.000000D+00  0.000000D+00
  -3.205129D+06  3.365385D+07 -4.807693D+06  0.000000D+00  0.000000D+00  0.000000D+00  1.474359D+07 -2.585470D+07 -9.615388D+05
   0.000000D+00  0.000000D+00  0.000000D+00 -1.153846D+07 -4.914530D+06 -2.884616D+06
0COLUMN     81      ROWS     62 THRU     93     --------------------------------------------------
 
  -9.615388D+05 -1.394231D+07  0.000000D+00  0.000000D+00  0.000000D+00 -4.326924D+06  4.807693D+06  1.068376D+06  0.000000D+00
   0.000000D+00  0.000000D+00  4.326924D+06  1.923077D+06  2.777778D+06  0.000000D+00  0.000000D+00  0.000000D+00  0.000000D+00
  -4.807693D+06  2.163462D+07  0.000000D+00  0.000000D+00  0.000000D+00 -4.326924D+06  9.615388D+05 -8.760684D+06  0.000000D+00
   0.000000D+00  0.000000D+00  4.326924D+06 -1.923077D+06 -2.777778D+06
0COLUMNS      82 THRU      84 ARE NULL.
0COLUMN     85      ROWS     61 THRU     93     --------------------------------------------------
 
   5.876069D+06  2.564103D+06  4.326924D+06  0.000000D+00  0.000000D+00  0.000000D+00 -2.884616D+06 -3.205129D+06  1.442308D+06
   0.000000D+00  0.000000D+00  0.000000D+00 -5.876069D+06  6.410255D+05  7.211539D+06  0.000000D+00  0.000000D+00  0.000000D+00
  -1.356838D+07  1.474359D+07 -4.326924D+06  0.000000D+00  0.000000D+00  0.000000D+00  7.115386D+07 -2.564103D+07 -7.211539D+06
   0.000000D+00  0.000000D+00  0.000000D+00 -5.470086D+07  1.089744D+07 -1.442308D+06
0COLUMN     86      ROWS     61 THRU     93     --------------------------------------------------
 
   6.410255D+05 -1.068376D+06 -4.807693D+06  0.000000D+00  0.000000D+00  0.000000D+00 -3.205129D+06 -2.884616D+06 -9.615388D+05
   0.000000D+00  0.000000D+00  0.000000D+00  2.564103D+06  1.068376D+06 -2.884616D+06  0.000000D+00  0.000000D+00  0.000000D+00
   1.089744D+07 -2.585470D+07  9.615388D+05  0.000000D+00  0.000000D+00  0.000000D+00 -2.564103D+07  4.711539D+07  4.807693D+06
   0.000000D+00  0.000000D+00  0.000000D+00  1.474359D+07 -1.837607D+07  2.884616D+06
0COLUMN     87      ROWS     61 THRU     93     --------------------------------------------------
 
   2.884616D+06 -4.807693D+06  1.068376D+06  0.000000D+00  0.000000D+00  0.000000D+00 -1.442308D+06  9.615388D+05 -1.009616D+07
   0.000000D+00  0.000000D+00  0.000000D+00  7.211539D+06 -1.923077D+06 -1.068376D+06  0.000000D+00  0.000000D+00  0.000000D+00
  -2.884616D+06 -9.615388D+05 -8.760684D+06  0.000000D+00  0.000000D+00  0.000000D+00 -7.211539D+06  4.807693D+06  3.509616D+07
   0.000000D+00  0.000000D+00  0.000000D+00  1.442308D+06  1.923077D+06 -1.623932D+07
0COLUMNS      88 THRU      90 ARE NULL.
0COLUMN     91      ROWS     61 THRU     93     --------------------------------------------------
 
   7.585471D+06 -5.769232D+06 -4.326924D+06  0.000000D+00  0.000000D+00  0.000000D+00 -5.876069D+06  2.564103D+06 -7.211539D+06
   0.000000D+00  0.000000D+00  0.000000D+00 -4.594017D+06  3.205129D+06 -1.442308D+06  0.000000D+00  0.000000D+00  0.000000D+00
  -7.585471D+06 -1.153846D+07  4.326924D+06  0.000000D+00  0.000000D+00  0.000000D+00 -5.470086D+07  1.474359D+07  1.442308D+06
   0.000000D+00  0.000000D+00  0.000000D+00  6.517095D+07 -3.205129D+06  7.211539D+06
0COLUMN     92      ROWS     61 THRU     92     --------------------------------------------------
 
1     WEDGE ELEMENT PROBLEM                                                 /    95 SUN SOLARIS NASTRAN    / MAY 17, 95 / PAGE    26
      NASTRAN TEST PROBLEM NO. T01-21-1A                                                                                            
0                                                                                                                                   
0    MATRIX  KGGX        CONTINUED                                                                                                  
                                                                                                                                    
                                                                                                                                    
  -3.846154D+06  4.914530D+06 -1.923077D+06  0.000000D+00  0.000000D+00  0.000000D+00  6.410255D+05  1.068376D+06  1.923077D+06
   0.000000D+00  0.000000D+00  0.000000D+00  3.205129D+06 -8.867522D+06  0.000000D+00  0.000000D+00  0.000000D+00  0.000000D+00
  -7.692308D+06 -4.914530D+06 -1.923077D+06  0.000000D+00  0.000000D+00  0.000000D+00  1.089744D+07 -1.837607D+07  1.923077D+06
   0.000000D+00  0.000000D+00  0.000000D+00 -3.205129D+06  2.617522D+07
0COLUMN     93      ROWS     61 THRU     93     --------------------------------------------------
 
  -2.884616D+06 -2.884616D+06  2.777778D+06  0.000000D+00  0.000000D+00  0.000000D+00 -7.211539D+06  2.884616D+06 -1.068376D+06
   0.000000D+00  0.000000D+00  0.000000D+00  1.442308D+06  0.000000D+00 -1.180556D+07  0.000000D+00  0.000000D+00  0.000000D+00
   2.884616D+06 -2.884616D+06 -2.777778D+06  0.000000D+00  0.000000D+00  0.000000D+00 -1.442308D+06  2.884616D+06 -1.623932D+07
   0.000000D+00  0.000000D+00  0.000000D+00  7.211539D+06  0.000000D+00  2.911325D+07
0COLUMNS      94 THRU      96 ARE NULL.
0COLUMN     97      ROWS     97 THRU    129     --------------------------------------------------
 
   7.115386D+07 -2.564103D+07  7.211539D+06  0.000000D+00  0.000000D+00  0.000000D+00 -2.884616D+06 -3.205129D+06 -1.442308D+06
   0.000000D+00  0.000000D+00  0.000000D+00 -1.356838D+07  1.474359D+07  4.326924D+06  0.000000D+00  0.000000D+00  0.000000D+00
  -5.470086D+07  1.089744D+07  1.442308D+06  0.000000D+00  0.000000D+00  0.000000D+00  5.876069D+06  2.564103D+06 -4.326924D+06
   0.000000D+00  0.000000D+00  0.000000D+00 -5.876069D+06  6.410255D+05 -7.211539D+06
0COLUMN     98      ROWS     97 THRU    129     --------------------------------------------------
 
  -2.564103D+07  4.711539D+07 -4.807693D+06  0.000000D+00  0.000000D+00  0.000000D+00 -3.205129D+06 -2.884616D+06  9.615388D+05
   0.000000D+00  0.000000D+00  0.000000D+00  1.089744D+07 -2.585470D+07 -9.615388D+05  0.000000D+00  0.000000D+00  0.000000D+00
   1.474359D+07 -1.837607D+07 -2.884616D+06  0.000000D+00  0.000000D+00  0.000000D+00  6.410255D+05 -1.068376D+06  4.807693D+06
   0.000000D+00  0.000000D+00  0.000000D+00  2.564103D+06  1.068376D+06  2.884616D+06
[...]
   0.000000D+00  0.000000D+00  0.000000D+00  0.000000D+00  0.000000D+00  0.000000D+00 -9.615388D+05 -2.323719D+06 -7.211539D+06
0COLUMN    147      ROWS    145 THRU    189     --------------------------------------------------
 
  -1.081731D+07  7.211539D+06  3.345353D+07  0.000000D+00  0.000000D+00  0.000000D+00  1.442308D+06  0.000000D+00 -1.153846D+07
   0.000000D+00  0.000000D+00  0.000000D+00  7.211541D+05 -4.807694D+05 -1.642628D+06  0.000000D+00  0.000000D+00  0.000000D+00
   0.000000D+00 -9.615388D+05 -5.128205D+06  0.000000D+00  0.000000D+00  0.000000D+00 -1.442308D+06  9.615388D+05 -1.009616D+07
   0.000000D+00  0.000000D+00  0.000000D+00  1.081731D+07  4.807694D+05 -4.126603D+06  0.000000D+00  0.000000D+00  0.000000D+00
   0.000000D+00  0.000000D+00  0.000000D+00  0.000000D+00  0.000000D+00  0.000000D+00 -7.211541D+05 -7.211539D+06 -9.214747D+05
0COLUMNS     148 THRU     150 ARE NULL.
0COLUMN    151      ROWS    145 THRU    183     --------------------------------------------------
 
1     WEDGE ELEMENT PROBLEM                                                 /    95 SUN SOLARIS NASTRAN    / MAY 17, 95 / PAGE    31
      NASTRAN TEST PROBLEM NO. T01-21-1A                                                                                            
0                                                                                                                                   
0    MATRIX  KGGX        CONTINUED                                                                                                  
                                                                                                                                    
                                                                                                                                    
  -4.038462D+07  1.923078D+06  1.442308D+06  0.000000D+00  0.000000D+00  0.000000D+00  6.049680D+07  1.442308D+07  1.081731D+07
   0.000000D+00  0.000000D+00  0.000000D+00 -5.128205D+06 -1.923078D+06  0.000000D+00  0.000000D+00  0.000000D+00  0.000000D+00
  -1.065705D+07 -1.442308D+07  7.211541D+05  0.000000D+00  0.000000D+00  0.000000D+00 -9.535258D+06  9.615388D+05 -1.081731D+07
   0.000000D+00  0.000000D+00  0.000000D+00 -2.884616D+06  0.000000D+00 -1.442308D+06  0.000000D+00  0.000000D+00  0.000000D+00
   8.092950D+06 -9.615388D+05 -7.211541D+05
0COLUMN    152      ROWS    145 THRU    183     --------------------------------------------------
 
  -1.923078D+06 -1.153846D+07  0.000000D+00  0.000000D+00  0.000000D+00  0.000000D+00  1.442308D+07  4.046475D+07  7.211539D+06
   0.000000D+00  0.000000D+00  0.000000D+00  1.923078D+06 -1.794872D+07  9.615388D+05  0.000000D+00  0.000000D+00  0.000000D+00
  -1.442308D+07 -6.650642D+06  4.807694D+05  0.000000D+00  0.000000D+00  0.000000D+00 -9.615388D+05  8.814108D+05 -4.807694D+05
   0.000000D+00  0.000000D+00  0.000000D+00  0.000000D+00 -2.884616D+06 -9.615388D+05  0.000000D+00  0.000000D+00  0.000000D+00
   9.615388D+05 -2.323719D+06 -7.211539D+06
0COLUMN    153      ROWS    145 THRU    183     --------------------------------------------------
 
  -1.442308D+06  0.000000D+00 -1.153846D+07  0.000000D+00  0.000000D+00  0.000000D+00  1.081731D+07  7.211539D+06  3.345353D+07
   0.000000D+00  0.000000D+00  0.000000D+00  0.000000D+00 -9.615388D+05 -5.128205D+06  0.000000D+00  0.000000D+00  0.000000D+00
  -7.211541D+05 -4.807694D+05 -1.642628D+06  0.000000D+00  0.000000D+00  0.000000D+00 -1.081731D+07  4.807694D+05 -4.126603D+06
   0.000000D+00  0.000000D+00  0.000000D+00  1.442308D+06  9.615388D+05 -1.009616D+07  0.000000D+00  0.000000D+00  0.000000D+00
   7.211541D+05 -7.211539D+06 -9.214747D+05
0COLUMNS     154 THRU     156 ARE NULL.
0COLUMN    157      ROWS    145 THRU    189     --------------------------------------------------
 
  -1.065705D+07  1.442308D+07  7.211541D+05  0.000000D+00  0.000000D+00  0.000000D+00 -5.128205D+06  1.923078D+06  0.000000D+00
   0.000000D+00  0.000000D+00  0.000000D+00  6.049680D+07 -1.442308D+07  1.081731D+07  0.000000D+00  0.000000D+00  0.000000D+00
  -4.038462D+07 -1.923078D+06  1.442308D+06  0.000000D+00  0.000000D+00  0.000000D+00  0.000000D+00  0.000000D+00  0.000000D+00
   0.000000D+00  0.000000D+00  0.000000D+00  8.092950D+06  9.615388D+05 -7.211541D+05  0.000000D+00  0.000000D+00  0.000000D+00
  -2.884616D+06  0.000000D+00 -1.442308D+06  0.000000D+00  0.000000D+00  0.000000D+00 -9.535258D+06 -9.615388D+05 -1.081731D+07
0COLUMN    158      ROWS    145 THRU    189     --------------------------------------------------
 
   1.442308D+07 -6.650642D+06 -4.807694D+05  0.000000D+00  0.000000D+00  0.000000D+00 -1.923078D+06 -1.794872D+07 -9.615388D+05
   0.000000D+00  0.000000D+00  0.000000D+00 -1.442308D+07  4.046475D+07 -7.211539D+06  0.000000D+00  0.000000D+00  0.000000D+00
   1.923078D+06 -1.153846D+07  0.000000D+00  0.000000D+00  0.000000D+00  0.000000D+00  0.000000D+00  0.000000D+00  0.000000D+00
   0.000000D+00  0.000000D+00  0.000000D+00 -9.615388D+05 -2.323719D+06  7.211539D+06  0.000000D+00  0.000000D+00  0.000000D+00
   0.000000D+00 -2.884616D+06  9.615388D+05  0.000000D+00  0.000000D+00  0.000000D+00  9.615388D+05  8.814108D+05  4.807694D+05
0COLUMN    159      ROWS    145 THRU    189     --------------------------------------------------
 
  -7.211541D+05  4.807694D+05 -1.642628D+06  0.000000D+00  0.000000D+00  0.000000D+00  0.000000D+00  9.615388D+05 -5.128205D+06
   0.000000D+00  0.000000D+00  0.000000D+00  1.081731D+07 -7.211539D+06  3.345353D+07  0.000000D+00  0.000000D+00  0.000000D+00
  -1.442308D+06  0.000000D+00 -1.153846D+07  0.000000D+00  0.000000D+00  0.000000D+00  0.000000D+00  0.000000D+00  0.000000D+00
   0.000000D+00  0.000000D+00  0.000000D+00  7.211541D+05  7.211539D+06 -9.214747D+05  0.000000D+00  0.000000D+00  0.000000D+00
   1.442308D+06 -9.615388D+05 -1.009616D+07  0.000000D+00  0.000000D+00  0.000000D+00 -1.081731D+07 -4.807694D+05 -4.126603D+06
1     WEDGE ELEMENT PROBLEM                                                 /    95 SUN SOLARIS NASTRAN    / MAY 17, 95 / PAGE    32
      NASTRAN TEST PROBLEM NO. T01-21-1A                                                                                            
0                                                                                                                                   
0    MATRIX  KGGX        CONTINUED                                                                                                  
                                                                                                                                    
                                                                                                                                    
0COLUMNS     160 THRU     162 ARE NULL.
0COLUMN    163      ROWS    145 THRU    189     --------------------------------------------------
 
  -5.128205D+06 -1.923078D+06  0.000000D+00  0.000000D+00  0.000000D+00  0.000000D+00 -1.065705D+07 -1.442308D+07 -7.211541D+05
   0.000000D+00  0.000000D+00  0.000000D+00 -4.038462D+07  1.923078D+06 -1.442308D+06  0.000000D+00  0.000000D+00  0.000000D+00
   6.049680D+07  1.442308D+07 -1.081731D+07  0.000000D+00  0.000000D+00  0.000000D+00  8.092950D+06 -9.615388D+05  7.211541D+05
   0.000000D+00  0.000000D+00  0.000000D+00  0.000000D+00  0.000000D+00  0.000000D+00  0.000000D+00  0.000000D+00  0.000000D+00
  -9.535258D+06  9.615388D+05  1.081731D+07  0.000000D+00  0.000000D+00  0.000000D+00 -2.884616D+06  0.000000D+00  1.442308D+06
0COLUMN    164      ROWS    145 THRU    189     --------------------------------------------------
 
   1.923078D+06 -1.794872D+07 -9.615388D+05  0.000000D+00  0.000000D+00  0.000000D+00 -1.442308D+07 -6.650642D+06 -4.807694D+05
   0.000000D+00  0.000000D+00  0.000000D+00 -1.923078D+06 -1.153846D+07  0.000000D+00  0.000000D+00  0.000000D+00  0.000000D+00
   1.442308D+07  4.046475D+07 -7.211539D+06  0.000000D+00  0.000000D+00  0.000000D+00  9.615388D+05 -2.323719D+06  7.211539D+06
   0.000000D+00  0.000000D+00  0.000000D+00  0.000000D+00  0.000000D+00  0.000000D+00  0.000000D+00  0.000000D+00  0.000000D+00
  -9.615388D+05  8.814108D+05  4.807694D+05  0.000000D+00  0.000000D+00  0.000000D+00  0.000000D+00 -2.884616D+06  9.615388D+05
0COLUMN    165      ROWS    146 THRU    189     --------------------------------------------------
 
   9.615388D+05 -5.128205D+06  0.000000D+00  0.000000D+00  0.000000D+00  7.211541D+05  4.807694D+05 -1.642628D+06  0.000000D+00
   0.000000D+00  0.000000D+00  1.442308D+06  0.000000D+00 -1.153846D+07  0.000000D+00  0.000000D+00  0.000000D+00 -1.081731D+07
  -7.211539D+06  3.345353D+07  0.000000D+00  0.000000D+00  0.000000D+00 -7.211541D+05  7.211539D+06 -9.214747D+05  0.000000D+00
   0.000000D+00  0.000000D+00  0.000000D+00  0.000000D+00  0.000000D+00  0.000000D+00  0.000000D+00  0.000000D+00  1.081731D+07
  -4.807694D+05 -4.126603D+06  0.000000D+00  0.000000D+00  0.000000D+00 -1.442308D+06 -9.615388D+05 -1.009616D+07
0COLUMNS     166 THRU     168 ARE NULL.
0COLUMN    169      ROWS    145 THRU    188     --------------------------------------------------
 
  -2.884616D+06  0.000000D+00 -1.442308D+06  0.000000D+00  0.000000D+00  0.000000D+00 -9.535258D+06 -9.615388D+05 -1.081731D+07
   0.000000D+00  0.000000D+00  0.000000D+00  0.000000D+00  0.000000D+00  0.000000D+00  0.000000D+00  0.000000D+00  0.000000D+00
   8.092950D+06  9.615388D+05 -7.211541D+05  0.000000D+00  0.000000D+00  0.000000D+00  6.049680D+07 -1.442308D+07  1.081731D+07
   0.000000D+00  0.000000D+00  0.000000D+00 -4.038462D+07 -1.923078D+06  1.442308D+06  0.000000D+00  0.000000D+00  0.000000D+00
  -1.065705D+07  1.442308D+07  7.211541D+05  0.000000D+00  0.000000D+00  0.000000D+00 -5.128205D+06  1.923078D+06
0COLUMN    170      ROWS    146 THRU    189     --------------------------------------------------
 
  -2.884616D+06  9.615388D+05  0.000000D+00  0.000000D+00  0.000000D+00  9.615388D+05  8.814108D+05  4.807694D+05  0.000000D+00
   0.000000D+00  0.000000D+00  0.000000D+00  0.000000D+00  0.000000D+00  0.000000D+00  0.000000D+00  0.000000D+00 -9.615388D+05
  -2.323719D+06  7.211539D+06  0.000000D+00  0.000000D+00  0.000000D+00 -1.442308D+07  4.046475D+07 -7.211539D+06  0.000000D+00
   0.000000D+00  0.000000D+00  1.923078D+06 -1.153846D+07  0.000000D+00  0.000000D+00  0.000000D+00  0.000000D+00  1.442308D+07
  -6.650642D+06 -4.807694D+05  0.000000D+00  0.000000D+00  0.000000D+00 -1.923078D+06 -1.794872D+07 -9.615388D+05
0COLUMN    171      ROWS    145 THRU    189     --------------------------------------------------
 
1     WEDGE ELEMENT PROBLEM                                                 /    95 SUN SOLARIS NASTRAN    / MAY 17, 95 / PAGE    33
      NASTRAN TEST PROBLEM NO. T01-21-1A                                                                                            
0                                                                                                                                   
0    MATRIX  KGGX        CONTINUED                                                                                                  
                                                                                                                                    
                                                                                                                                    
   1.442308D+06 -9.615388D+05 -1.009616D+07  0.000000D+00  0.000000D+00  0.000000D+00 -1.081731D+07 -4.807694D+05 -4.126603D+06
   0.000000D+00  0.000000D+00  0.000000D+00  0.000000D+00  0.000000D+00  0.000000D+00  0.000000D+00  0.000000D+00  0.000000D+00
   7.211541D+05  7.211539D+06 -9.214747D+05  0.000000D+00  0.000000D+00  0.000000D+00  1.081731D+07 -7.211539D+06  3.345353D+07
   0.000000D+00  0.000000D+00  0.000000D+00 -1.442308D+06  0.000000D+00 -1.153846D+07  0.000000D+00  0.000000D+00  0.000000D+00
  -7.211541D+05  4.807694D+05 -1.642628D+06  0.000000D+00  0.000000D+00  0.000000D+00  0.000000D+00  9.615388D+05 -5.128205D+06
0COLUMNS     172 THRU     174 ARE NULL.
0COLUMN    175      ROWS    145 THRU    189     --------------------------------------------------
 
  -9.535258D+06  9.615388D+05  1.081731D+07  0.000000D+00  0.000000D+00  0.000000D+00 -2.884616D+06  0.000000D+00  1.442308D+06
   0.000000D+00  0.000000D+00  0.000000D+00  8.092950D+06 -9.615388D+05  7.211541D+05  0.000000D+00  0.000000D+00  0.000000D+00
   0.000000D+00  0.000000D+00  0.000000D+00  0.000000D+00  0.000000D+00  0.000000D+00 -4.038462D+07  1.923078D+06 -1.442308D+06
   0.000000D+00  0.000000D+00  0.000000D+00  6.049680D+07  1.442308D+07 -1.081731D+07  0.000000D+00  0.000000D+00  0.000000D+00
  -5.128205D+06 -1.923078D+06  0.000000D+00  0.000000D+00  0.000000D+00  0.000000D+00 -1.065705D+07 -1.442308D+07 -7.211541D+05
0COLUMN    176      ROWS    145 THRU    189     --------------------------------------------------
 
  -9.615388D+05  8.814108D+05  4.807694D+05  0.000000D+00  0.000000D+00  0.000000D+00  0.000000D+00 -2.884616D+06  9.615388D+05
   0.000000D+00  0.000000D+00  0.000000D+00  9.615388D+05 -2.323719D+06  7.211539D+06  0.000000D+00  0.000000D+00  0.000000D+00
   0.000000D+00  0.000000D+00  0.000000D+00  0.000000D+00  0.000000D+00  0.000000D+00 -1.923078D+06 -1.153846D+07  0.000000D+00
   0.000000D+00  0.000000D+00  0.000000D+00  1.442308D+07  4.046475D+07 -7.211539D+06  0.000000D+00  0.000000D+00  0.000000D+00
   1.923078D+06 -1.794872D+07 -9.615388D+05  0.000000D+00  0.000000D+00  0.000000D+00 -1.442308D+07 -6.650642D+06 -4.807694D+05
0COLUMN    177      ROWS    145 THRU    189     --------------------------------------------------
 
   1.081731D+07 -4.807694D+05 -4.126603D+06  0.000000D+00  0.000000D+00  0.000000D+00 -1.442308D+06 -9.615388D+05 -1.009616D+07
   0.000000D+00  0.000000D+00  0.000000D+00 -7.211541D+05  7.211539D+06 -9.214747D+05  0.000000D+00  0.000000D+00  0.000000D+00
   0.000000D+00  0.000000D+00  0.000000D+00  0.000000D+00  0.000000D+00  0.000000D+00  1.442308D+06  0.000000D+00 -1.153846D+07
   0.000000D+00  0.000000D+00  0.000000D+00 -1.081731D+07 -7.211539D+06  3.345353D+07  0.000000D+00  0.000000D+00  0.000000D+00
   0.000000D+00  9.615388D+05 -5.128205D+06  0.000000D+00  0.000000D+00  0.000000D+00  7.211541D+05  4.807694D+05 -1.642628D+06
0COLUMNS     178 THRU     180 ARE NULL.
0COLUMN    181      ROWS    151 THRU    189     --------------------------------------------------
 
   8.092950D+06  9.615388D+05  7.211541D+05  0.000000D+00  0.000000D+00  0.000000D+00 -2.884616D+06  0.000000D+00  1.442308D+06
   0.000000D+00  0.000000D+00  0.000000D+00 -9.535258D+06 -9.615388D+05  1.081731D+07  0.000000D+00  0.000000D+00  0.000000D+00
  -1.065705D+07  1.442308D+07 -7.211541D+05  0.000000D+00  0.000000D+00  0.000000D+00 -5.128205D+06  1.923078D+06  0.000000D+00
   0.000000D+00  0.000000D+00  0.000000D+00  6.049680D+07 -1.442308D+07 -1.081731D+07  0.000000D+00  0.000000D+00  0.000000D+00
  -4.038462D+07 -1.923078D+06 -1.442308D+06
0COLUMN    182      ROWS    151 THRU    188     --------------------------------------------------
 
  -9.615388D+05 -2.323719D+06 -7.211539D+06  0.000000D+00  0.000000D+00  0.000000D+00  0.000000D+00 -2.884616D+06 -9.615388D+05
   0.000000D+00  0.000000D+00  0.000000D+00  9.615388D+05  8.814108D+05 -4.807694D+05  0.000000D+00  0.000000D+00  0.000000D+00
   1.442308D+07 -6.650642D+06  4.807694D+05  0.000000D+00  0.000000D+00  0.000000D+00 -1.923078D+06 -1.794872D+07  9.615388D+05
1     WEDGE ELEMENT PROBLEM                                                 /    95 SUN SOLARIS NASTRAN    / MAY 17, 95 / PAGE    34
      NASTRAN TEST PROBLEM NO. T01-21-1A                                                                                            
0                                                                                                                                   
0    MATRIX  KGGX        CONTINUED                                                                                                  
                                                                                                                                    
                                                                                                                                    
   0.000000D+00  0.000000D+00  0.000000D+00 -1.442308D+07  4.046475D+07  7.211539D+06  0.000000D+00  0.000000D+00  0.000000D+00
   1.923078D+06 -1.153846D+07
0COLUMN    183      ROWS    151 THRU    189     --------------------------------------------------
 
  -7.211541D+05 -7.211539D+06 -9.214747D+05  0.000000D+00  0.000000D+00  0.000000D+00 -1.442308D+06  9.615388D+05 -1.009616D+07
   0.000000D+00  0.000000D+00  0.000000D+00  1.081731D+07  4.807694D+05 -4.126603D+06  0.000000D+00  0.000000D+00  0.000000D+00
   7.211541D+05 -4.807694D+05 -1.642628D+06  0.000000D+00  0.000000D+00  0.000000D+00  0.000000D+00 -9.615388D+05 -5.128205D+06
   0.000000D+00  0.000000D+00  0.000000D+00 -1.081731D+07  7.211539D+06  3.345353D+07  0.000000D+00  0.000000D+00  0.000000D+00
   1.442308D+06  0.000000D+00 -1.153846D+07
0COLUMNS     184 THRU     186 ARE NULL.
0COLUMN    187      ROWS    145 THRU    189     --------------------------------------------------
 
   8.092950D+06 -9.615388D+05 -7.211541D+05  0.000000D+00  0.000000D+00  0.000000D+00  0.000000D+00  0.000000D+00  0.000000D+00
   0.000000D+00  0.000000D+00  0.000000D+00 -9.535258D+06  9.615388D+05 -1.081731D+07  0.000000D+00  0.000000D+00  0.000000D+00
  -2.884616D+06  0.000000D+00 -1.442308D+06  0.000000D+00  0.000000D+00  0.000000D+00 -5.128205D+06 -1.923078D+06  0.000000D+00
   0.000000D+00  0.000000D+00  0.000000D+00 -1.065705D+07 -1.442308D+07  7.211541D+05  0.000000D+00  0.000000D+00  0.000000D+00
  -4.038462D+07  1.923078D+06  1.442308D+06  0.000000D+00  0.000000D+00  0.000000D+00  6.049680D+07  1.442308D+07  1.081731D+07
0COLUMN    188      ROWS    145 THRU    189     --------------------------------------------------
 
   9.615388D+05 -2.323719D+06 -7.211539D+06  0.000000D+00  0.000000D+00  0.000000D+00  0.000000D+00  0.000000D+00  0.000000D+00
   0.000000D+00  0.000000D+00  0.000000D+00 -9.615388D+05  8.814108D+05 -4.807694D+05  0.000000D+00  0.000000D+00  0.000000D+00
   0.000000D+00 -2.884616D+06 -9.615388D+05  0.000000D+00  0.000000D+00  0.000000D+00  1.923078D+06 -1.794872D+07  9.615388D+05
   0.000000D+00  0.000000D+00  0.000000D+00 -1.442308D+07 -6.650642D+06  4.807694D+05  0.000000D+00  0.000000D+00  0.000000D+00
  -1.923078D+06 -1.153846D+07  0.000000D+00  0.000000D+00  0.000000D+00  0.000000D+00  1.442308D+07  4.046475D+07  7.211539D+06
0COLUMN    189      ROWS    145 THRU    189     --------------------------------------------------
 
   7.211541D+05 -7.211539D+06 -9.214747D+05  0.000000D+00  0.000000D+00  0.000000D+00  0.000000D+00  0.000000D+00  0.000000D+00
   0.000000D+00  0.000000D+00  0.000000D+00 -1.081731D+07  4.807694D+05 -4.126603D+06  0.000000D+00  0.000000D+00  0.000000D+00
   1.442308D+06  9.615388D+05 -1.009616D+07  0.000000D+00  0.000000D+00  0.000000D+00  0.000000D+00 -9.615388D+05 -5.128205D+06
   0.000000D+00  0.000000D+00  0.000000D+00 -7.211541D+05 -4.807694D+05 -1.642628D+06  0.000000D+00  0.000000D+00  0.000000D+00
  -1.442308D+06  0.000000D+00 -1.153846D+07  0.000000D+00  0.000000D+00  0.000000D+00  1.081731D+07  7.211539D+06  3.345353D+07
0COLUMNS     190 THRU     240 ARE NULL.
0THE NUMBER OF NON-ZERO WORDS IN THE LONGEST RECORD =      48
0THE DENSITY OF THIS MATRIX IS   2.86 PERCENT.




                                        * * * END OF JOB * * *
1
 JOB TITLE =  WEDGE ELEMENT PROBLEM                                              
 DATE:  5/17/95
 END TIME: 16:34: 3
 TOTAL WALL CLOCK TIME      2 SEC.
 
