





                                  ****
                                *      *
                               *        *
                               *  N A S T R A N
                               *        *
                                *      *
                                  ****


                             SUN COMPUTER SYSTEMS    
                                SOLARIS VERSION

                          SYSTEM RELEASE -  1995 ED.

                                DISTRIBUTED BY

         COMPUTER SOFTWARE MANAGEMENT AND INFORMATION CENTER (COSMIC)
                 UNIVERSITY OF GEORGIA, ATHENS, GEORGIA 30602
                 PHONE: (706)542-3265      FAX: (706)542-4807
1                                                                           /    95 SUN SOLARIS NASTRAN    / MAY 17, 95 / PAGE     2
                                                                                                                                    
0                                                                                                                                   
                                                                                                         
                                                                                                         
                         INSTALLATION CENTER USER INFORMATION GIVEN IN THIS SECTION                      
                                                                                                         
                                     *********************************************                       
                                     *                                           *                       
                                     *  PLEASE READ THE COMMENT IN DEMO PROBLEM  *                       
                                     *  D01002A ABOUT SYSTEM TIMING CONSTANTS    *                       
                                     *                                           *                       
                                     *********************************************                       
                                                                                                         
                         ===X=    TOP OF PAGE REQUEST IF 'X' IS REPLACED BY '='                          
                                                                                                         
1                                                                           /    95 SUN SOLARIS NASTRAN    / MAY 17, 95 / PAGE     3
                                                                                                                                    
0                                                                                                                                   
0*** USER INFORMATION MESSAGE 225, GINO TIME CONSTANTS ARE BEING COMPUTED
     (SEE NASINFO FILE FOR ELIMINATION OF THESE COMPUTATIONS)
1                                                                           /    95 SUN SOLARIS NASTRAN    / MAY 17, 95 / PAGE     4
                                                                                                                                    
0        N A S T R A N    E X E C U T I V E    C O N T R O L    D E C K    E C H O                                                  
0                                                                                                                                   
                                                                                                                                    
                                                                                                                                    
     ID    T01281A,NASTRAN                                                           
     DIAG  40                                                                        
     SOL   1,0                                                                       
     APP   DISP                                                                      
     TIME  30                                                                        
     CEND                                                                            


0*** USER INFORMATION MESSAGE, TURN DIAG 48 ON FOR NASTRAN RELEASE NEWS, DIAG DEFINITION, NEW DMAP
         MODULES AND NEW BULKDATA CARDS INFORMATION
1     COMP04 ***COSMIS*** QUAD4 4-NODE STRAIGHT BEAM TEST                   /    95 SUN SOLARIS NASTRAN    / MAY 17, 95 / PAGE     5
      NASTRAN TEST PROBLEM NO. T01-28-1A                                                                                            
0     REGULAR SHAPE ELEMENTS ( ISOTROPIC PROPERTIES)                                                                                
0                                        C A S E    C O N T R O L   D E C K   E C H O                                               
                 CARD                                                                                                               
                 COUNT                                                                                                              
                  1      TITLE    = COMP04 ***COSMIS*** QUAD4 4-NODE STRAIGHT BEAM TEST                  
                  2      SUBTITLE = NASTRAN TEST PROBLEM NO. T01-28-1A                                   
                  3      LABEL    = REGULAR SHAPE ELEMENTS ( ISOTROPIC PROPERTIES)                       
                  4      $                                                                               
                  5      $    MODEL: CANTILEVERED BEAM MODEL UNDER A) EXTENSIONAL AND                    
                  6      $           B) BENDING LOADINGS.  SIMULATION OF EQUIVALENT                      
                  7      $           ISOTROPIC PROPERTIES. LAMINATE CONFIGURATION                        
                  8      $           [0/0/0/0]                                                           
                  9      $                                                                               
                 10      $       * * T1 DEFLECTION AT GRIDS 13 AND 14 * *                                
                 11      $                                                                               
                 12      $           THEORETICAL                                                         
                 13      $        --------------------------------------------------                     
                 14      $ SUBCASE 1 (EXTENSIONAL)                                                       
                 15      $                                                                               
                 16      $ GRID 13   3.0E-5                                                              
                 17      $ GRID 14   3.0E-5                                                              
                 18      $                                                                               
                 19      $       * * T3 DEFLECTION AT GRIDS 13 AND 14 * *                                
                 20      $                                                                               
                 21      $           THEORETICAL                                                         
                 22      $        --------------------------------------------------                     
                 23      $ SUBCASE 2 (BENDING)                                                           
                 24      $                                                                               
                 25      $ GRID 13   4.320E-1                                                            
                 26      $ GRID 14   4.320E-1                                                            
                 27      $                                                                               
                 28      $                                                                               
                 29      $       * * BENDING MOMENT DISTRIBUTION FROM     * *                            
                 30      $       * * THE FREE END TO THE CANTILEVERED END * *                            
                 31      $           NOTE: THE BENDING MOMENTS ARE AT THE ELEMENT CENTER                 
                 32      $                                                                               
                 33      $           THEORETICAL                                                         
                 34      $        ----------------------------------------------------                   
                 35      $           2.500E0                                                             
                 36      $           7.500E0                                                             
                 37      $           1.250E1                                                             
                 38      $           1.750E1                                                             
                 39      $           2.250E1                                                             
                 40      $           2.750E1                                                             
                 41      $                                                                               
                 42      $                                                                               
                 43      $       * * DIRECT LAYER BENDING STRESS           * *                           
                 44      $       * * ELEMENT 6 (LARGEST BENDING MOMENT)    * *                           
                 45      $                                                                               
                 46      $        --------------------------------------                                 
                 47      $                                                                               
1     COMP04 ***COSMIS*** QUAD4 4-NODE STRAIGHT BEAM TEST                   /    95 SUN SOLARIS NASTRAN    / MAY 17, 95 / PAGE     6
      NASTRAN TEST PROBLEM NO. T01-28-1A                                                                                            
0     REGULAR SHAPE ELEMENTS ( ISOTROPIC PROPERTIES)                                                                                
0                                        C A S E    C O N T R O L   D E C K   E C H O                                               
                 CARD                                                                                                               
                 COUNT                                                                                                              
                 48      $           LAYER 1   1.238E4                                                   
                 49      $           LAYER 2   4.125E3                                                   
                 50      $           LAYER 3  -4.125E3                                                   
                 51      $           LAYER 4  -1.238E4                                                   
                 52      $                                                                               
                 53      $                                                                               
                 54      $                                                                               
                 55      STRESS(LAYER) = ALL                                                             
                 56      DISP  = ALL                                                                     
                 57      FORCE = ALL                                                                     
                 58      SPC   = 1                                                                       
                 59      SUBCASE 1                                                                       
                 60         SUBTITLE = EXTENSION                                                         
                 61             LOAD = 1                                                                 
                 62      SUBCASE 2                                                                       
                 63         SUBTITLE = OUT-OF-PLANE SHEAR                                                
                 64             LOAD = 2                                                                 
                 65      BEGIN BULK                                                                      


                        (NO. OF UNSORTED BULK DATA CARDS READ =    29, INCLUDING   0 COMMENT CARDS)
0*** USER INFORMATION MESSAGE 207, BULK DATA DECK IS NOT SORTED. NASTRAN WILL RE-ORDER THE INPUT DECK.
1     COMP04 ***COSMIS*** QUAD4 4-NODE STRAIGHT BEAM TEST                   /    95 SUN SOLARIS NASTRAN    / MAY 17, 95 / PAGE     7
      NASTRAN TEST PROBLEM NO. T01-28-1A                                                                                            
0     REGULAR SHAPE ELEMENTS ( ISOTROPIC PROPERTIES)                                                                                
0                                                 S O R T E D   B U L K    D A T A    E C H O                                       
                     CARD                                                                                                           
                     COUNT        ---1--- +++2+++ ---3--- +++4+++ ---5--- +++6+++ ---7--- +++8+++ ---9--- +++10+++                  
                    1-        CQUAD4  1       1       3       5       6       4                               
                    2-        CQUAD4  2       1       5       7       8       6                               
                    3-        CQUAD4  3       1       7       9       10      8                               
                    4-        CQUAD4  4       1       9       11      12      10                              
                    5-        CQUAD4  5       1       11      13      14      12                              
                    6-        CQUAD4  6       1       1       3       4       2                               
                    7-        FORCE   1       13              0.5     1.0     0.0     0.0                     
                    8-        FORCE   1       14              0.5     1.0     0.0     0.0                     
                    9-        FORCE   2       13              0.5     0.0     0.0     1.0                     
                   10-        FORCE   2       14              0.5     0.0     0.0     1.0                     
                   11-        GRID    1               0.0     0.0     0.0                                     
                   12-        GRID    2               0.0     0.200   0.0                                     
                   13-        GRID    3               1.0     0.0     0.0                                     
                   14-        GRID    4               1.0     0.2     0.0                                     
                   15-        GRID    5               2.0     0.0     0.0                                     
                   16-        GRID    6               2.0     0.2     0.0                                     
                   17-        GRID    7               3.0     0.0     0.0                                     
                   18-        GRID    8               3.0     0.2     0.0                                     
                   19-        GRID    9               4.0     0.0     0.0                                     
                   20-        GRID    10              4.0     0.2     0.0                                     
                   21-        GRID    11              5.0     0.0     0.0                                     
                   22-        GRID    12              5.0     0.2     0.0                                     
                   23-        GRID    13              6.0     0.0     0.0                                     
                   24-        GRID    14              6.0     0.2     0.0                                     
                   25-        MAT1    1       .100E+08        0.300                                           
                   26-        PARAM   AUTOSPC 1                                                               
                   27-        PCOMP2  1                                       1               SYM     +PC1    
                   28-        +PC1    0.025   0.0     0.025   0.0                                             
                   29-        SPC1    1       123456  1       2                                               
                              ENDDATA
0*** USER INFORMATION MESSAGE -  GRID-POINT RESEQUENCING PROCESSOR BANDIT IS NOT USED DUE TO
     SMALL PROBLEM SIZE
0          **NO ERRORS FOUND - EXECUTE NASTRAN PROGRAM**
1     COMP04 ***COSMIS*** QUAD4 4-NODE STRAIGHT BEAM TEST                   /    95 SUN SOLARIS NASTRAN    / MAY 17, 95 / PAGE     8
      NASTRAN TEST PROBLEM NO. T01-28-1A                                                                                            

      REGULAR SHAPE ELEMENTS ( ISOTROPIC PROPERTIES)                                                                                






         THE INPUT PCOMP, PCOMP1 OR PCOMP2 BULK DATA ENTRIES HAVE BEEN REPLACED BY THE FOLLOWING PSHELL AND MAT2 ENTRIES.


 PSHELL             1   100000001  1.0000E-01   200000001  1.0000E+00   300000001  1.0000E+00  0.0000E+00
          -5.0000E-02  5.0000E-02           0         0.0         0.0  0.0000E+00

 MAT2       100000001  1.0989E+07  3.2967E+06  0.0000E+00  1.0989E+07  0.0000E+00  3.8462E+06  0.0000E+00
                  0.0         0.0         0.0         0.0         0.0         0.0         0.0         0.0

 MAT2       200000001  1.0989E+07  3.2967E+06  0.0000E+00  1.0989E+07  0.0000E+00  3.8462E+06  0.0000E+00
                  0.0         0.0         0.0         0.0         0.0         0.0         0.0         0.0

 MAT2       300000001  9.1575E+06  2.7473E+06  2.7473E+06  9.1575E+06  0.0000E+00  0.0000E+00  0.0000E+00
                  0.0         0.0         0.0         0.0         0.0         0.0         0.0         0.0
0*** USER INFORMATION MESSAGE 238, TURN DIAG 38 ON FOR ADDITIONAL ELEMENT PROCESSING INFORMATION

0*** USER INFORMATION MESSAGE 3113,
     EMG MODULE PROCESSING DOUBLE PRECISION QUAD4    ELEMENTS (ELEMENT TYPE  64) STARTING WITH ID        1
0*** USER INFORMATION MESSAGE 2435, AT USER'S REQUEST, ALL POTENTIAL SINGULARITIES HAVE BEEN REMOVED BY THE
     APPLICATION OF SINGLE POINT CONSTRAINTS.  REFER TO PRINTOUT OF AUTOMATICALLY GENERATED SPC1 CARDS FOR DETAILS.
1     COMP04 ***COSMIS*** QUAD4 4-NODE STRAIGHT BEAM TEST                   /    95 SUN SOLARIS NASTRAN    / MAY 17, 95 / PAGE     9
      NASTRAN TEST PROBLEM NO. T01-28-1A                                                                                            
0     REGULAR SHAPE ELEMENTS ( ISOTROPIC PROPERTIES)                                                                                


                                A U T O M A T I C A L L Y   G E N E R A T E D   S P C 1   C A R D S
                CARD 
                COUNT        ---1--- +++2+++ ---3--- +++4+++ ---5--- +++6+++ ---7--- +++8+++ ---9--- +++10+++

                   1-        SPC1           1       6       3       4       5       6       7       8
                   2-        SPC1           1       6       9      10      11      12      13      14
0*** USER INFORMATION MESSAGE 3035
     FOR SUBCASE NUMBER     1, EPSILON SUB E =   1.6654409E-15
0*** USER INFORMATION MESSAGE 3035
     FOR SUBCASE NUMBER     2, EPSILON SUB E =   4.5279097E-10
1     COMP04 ***COSMIS*** QUAD4 4-NODE STRAIGHT BEAM TEST                   /    95 SUN SOLARIS NASTRAN    / MAY 17, 95 / PAGE    10
      EXTENSION                                                                                                                     
0     REGULAR SHAPE ELEMENTS ( ISOTROPIC PROPERTIES)                                                         SUBCASE 1              
 
                                             D I S P L A C E M E N T   V E C T O R
 
      POINT ID.   TYPE          T1             T2             T3             R1             R2             R3
             1      G      0.0            0.0            0.0            0.0            0.0            0.0                           
             2      G      0.0            0.0            0.0            0.0            0.0            0.0                           
             3      G      4.830334E-06   1.868894E-07   3.534389E-19   4.801656E-20  -7.077067E-19   0.0                           
             4      G      4.830334E-06  -1.868894E-07   3.576165E-19  -6.194137E-21  -7.141831E-19   0.0                           
             5      G      9.872059E-06   1.409277E-07   1.413599E-18   6.161675E-20  -1.413499E-18   0.0                           
             6      G      9.872059E-06  -1.409277E-07   1.422228E-18   2.460397E-20  -1.414290E-18   0.0                           
             7      G      1.486180E-05   1.522316E-07   3.132712E-18   7.919731E-20  -2.025671E-18   0.0                           
             8      G      1.486180E-05  -1.522316E-07   3.145129E-18   4.499848E-20  -2.030819E-18   0.0                           
             9      G      1.986432E-05   1.494493E-07   5.406692E-18   9.165050E-20  -2.522861E-18   0.0                           
            10      G      1.986432E-05  -1.494493E-07   5.422503E-18   6.646425E-20  -2.523213E-18   0.0                           
            11      G      2.486371E-05   1.501431E-07   8.093936E-18   9.755435E-20  -2.852271E-18   0.0                           
            12      G      2.486371E-05  -1.501431E-07   8.112150E-18   8.451565E-20  -2.855712E-18   0.0                           
            13      G      2.986382E-05   1.499336E-07   1.101250E-17   1.004409E-19  -2.985302E-18   0.0                           
            14      G      2.986382E-05  -1.499336E-07   1.103208E-17   9.533790E-20  -2.984058E-18   0.0                           
1     COMP04 ***COSMIS*** QUAD4 4-NODE STRAIGHT BEAM TEST                   /    95 SUN SOLARIS NASTRAN    / MAY 17, 95 / PAGE    11
      OUT-OF-PLANE SHEAR                                                                                                            
0     REGULAR SHAPE ELEMENTS ( ISOTROPIC PROPERTIES)                                                         SUBCASE 2              
 
                                             D I S P L A C E M E N T   V E C T O R
 
      POINT ID.   TYPE          T1             T2             T3             R1             R2             R3
             1      G      0.0            0.0            0.0            0.0            0.0            0.0                           
             2      G      0.0            0.0            0.0            0.0            0.0            0.0                           
             3      G      1.538416E-17   6.324988E-17   1.572489E-02   1.098561E-03  -3.176609E-02   0.0                           
             4      G     -9.743610E-18   6.303713E-17   1.573726E-02  -1.232554E-03  -3.179058E-02   0.0                           
             5      G      2.734927E-17   2.353727E-16   6.075447E-02   6.023572E-04  -5.909372E-02   0.0                           
             6      G     -1.626324E-17   2.352330E-16   6.076431E-02  -7.073987E-04  -5.906426E-02   0.0                           
             7      G      3.582399E-17   4.846585E-16   1.302129E-01   5.557361E-04  -7.999959E-02   0.0                           
             8      G     -2.017207E-17   4.845348E-16   1.302125E-01  -5.547790E-04  -8.000879E-02   0.0                           
             9      G      4.115942E-17   7.828216E-16   2.175888E-01   2.966714E-04  -9.501883E-02   0.0                           
            10      G     -2.202862E-17   7.827365E-16   2.176004E-01  -4.219873E-04  -9.503330E-02   0.0                           
            11      G      4.386239E-17   1.107002E-15   3.167015E-01   1.105182E-04  -1.040144E-01   0.0                           
            12      G     -2.256928E-17   1.106962E-15   3.167124E-01  -2.247507E-04  -1.039986E-01   0.0                           
            13      G      4.464473E-17   1.441258E-15   4.221351E-01   5.391156E-05  -1.070726E-01   0.0                           
            14      G     -2.260016E-17   1.441244E-15   4.221345E-01  -5.407363E-05  -1.070654E-01   0.0                           
1     COMP04 ***COSMIS*** QUAD4 4-NODE STRAIGHT BEAM TEST                   /    95 SUN SOLARIS NASTRAN    / MAY 17, 95 / PAGE    12
      EXTENSION                                                                                                                     
0     REGULAR SHAPE ELEMENTS ( ISOTROPIC PROPERTIES)                                                         SUBCASE 1              
 
                      F O R C E S   I N   L A Y E R E D   C O M P O S I T E   E L E M E N T S   ( Q U A D 4 )

      ELEMENT                  - MEMBRANE  FORCES -                      - BENDING   MOMENTS -           - TRANSVERSE SHEAR FORCES -
        ID                FX            FY            FXY           MX            MY            MXY           VX            VY
0           1         5.00000E+00  -1.39086E-01   6.01229E-08   0.00000E+00  -9.93411E-11   0.00000E+00  -7.98689E-19   4.56767E-18
0           2         5.00000E+00   3.42033E-02   6.23091E-07   0.00000E+00   0.00000E+00   3.78956E-16  -1.47048E-18   8.40891E-18
0           3         5.00000E+00  -8.40502E-03  -2.18629E-07   0.00000E+00  -6.20882E-12   0.00000E+00   8.26280E-19  -5.21908E-18
0           4         5.00000E+00   2.03876E-03   6.83214E-07   3.17891E-09   0.00000E+00   0.00000E+00  -1.65827E-18   9.13937E-18
0           5         5.00000E+00  -3.83854E-04  -1.01116E-06   0.00000E+00  -1.94026E-13  -7.57912E-16  -2.19296E-18   1.14089E-17
0           6         5.00000E+00   5.65553E-01   1.55773E-07   0.00000E+00   3.97364E-10   9.47390E-17   1.31617E-18  -7.26755E-18
1     COMP04 ***COSMIS*** QUAD4 4-NODE STRAIGHT BEAM TEST                   /    95 SUN SOLARIS NASTRAN    / MAY 17, 95 / PAGE    13
      OUT-OF-PLANE SHEAR                                                                                                            
0     REGULAR SHAPE ELEMENTS ( ISOTROPIC PROPERTIES)                                                         SUBCASE 2              
 
                      F O R C E S   I N   L A Y E R E D   C O M P O S I T E   E L E M E N T S   ( Q U A D 4 )

      ELEMENT                  - MEMBRANE  FORCES -                      - BENDING   MOMENTS -           - TRANSVERSE SHEAR FORCES -
        ID                FX            FY            FXY           MX            MY            MXY           VX            VY
0           1        -2.44141E-05   0.00000E+00   0.00000E+00   2.25000E+01  -8.35149E-01   6.51443E-04  -7.93326E+00   7.96025E+01
0           2        -1.22070E-05   2.38419E-08   0.00000E+00   1.75000E+01   2.07769E-01   7.54847E-04  -4.76300E-01   3.87754E+01
0           3        -1.83105E-05   0.00000E+00   2.98023E-09   1.25000E+01  -6.07814E-02  -1.26670E-03  -1.55263E+00   4.46070E+01
0           4        -6.10352E-06  -3.81470E-07  -1.49012E-09   7.50000E+00   5.43181E-02   7.34167E-04  -8.02099E+00   8.00446E+01
0           5        -1.52588E-06   0.00000E+00   0.00000E+00   2.50000E+00  -1.73445E-01  -1.34425E-04  -9.92666E-01   4.15731E+01
0           6         0.00000E+00   0.00000E+00   0.00000E+00   2.75000E+01   3.39351E+00  -1.85093E-03  -2.14368E+00   4.79180E+01
1     COMP04 ***COSMIS*** QUAD4 4-NODE STRAIGHT BEAM TEST                   /    95 SUN SOLARIS NASTRAN    / MAY 17, 95 / PAGE    14
      EXTENSION                                                                                                                     
0     REGULAR SHAPE ELEMENTS ( ISOTROPIC PROPERTIES)                                                         SUBCASE 1              
 
                    S T R E S S E S   I N   L A Y E R E D   C O M P O S I T E   E L E M E N T S   ( Q U A D 4 )
0 ELEMENT   PLY *STRESSES IN FIBER AND MATRIX DIRECTIONS*  *DIRECT FIBER *  *INTER-LAMINAR STRESSES*  * SHEAR BOND  *   *MAXIMUM*
    ID      ID  *  NORMAL-1      NORMAL-2      SHEAR-12 *  *FAILURE INDEX*  *SHEAR-1Z      SHEAR-2Z*  *FAILURE INDEX*   * INDEX *

0       1     1   5.00000E+01  -1.39086E+00   6.01229E-07       0.000      -8.98525E-18   5.13863E-17     0.000    
              2   5.00000E+01  -1.39086E+00   6.01229E-07       0.000      -1.19803E-17   6.85151E-17     0.000    
              3   5.00000E+01  -1.39086E+00   6.01229E-07       0.000      -8.98525E-18   5.13863E-17     0.000    
              4   5.00000E+01  -1.39086E+00   6.01229E-07       0.000       0.00000E+00   0.00000E+00     0.000    
                                                                                                                          0.000
0       2     1   5.00000E+01   3.42033E-01   6.23091E-06       0.000      -1.65429E-17   9.46002E-17     0.000    
              2   5.00000E+01   3.42033E-01   6.23091E-06       0.000      -2.20572E-17   1.26134E-16     0.000    
              3   5.00000E+01   3.42033E-01   6.23091E-06       0.000      -1.65429E-17   9.46002E-17     0.000    
              4   5.00000E+01   3.42033E-01   6.23091E-06       0.000       0.00000E+00   0.00000E+00     0.000    
                                                                                                                          0.000
0       3     1   5.00000E+01  -8.40511E-02  -2.18629E-06       0.000       9.29565E-18  -5.87147E-17     0.000    
              2   5.00000E+01  -8.40511E-02  -2.18629E-06       0.000       1.23942E-17  -7.82862E-17     0.000    
              3   5.00000E+01  -8.40511E-02  -2.18629E-06       0.000       9.29565E-18  -5.87147E-17     0.000    
              4   5.00000E+01  -8.40511E-02  -2.18629E-06       0.000       0.00000E+00   0.00000E+00     0.000    
                                                                                                                          0.000
0       4     1   5.00000E+01   2.03857E-02   6.83214E-06       0.000      -1.86556E-17   1.02818E-16     0.000    
              2   5.00000E+01   2.03857E-02   6.83214E-06       0.000      -2.48741E-17   1.37090E-16     0.000    
              3   5.00000E+01   2.03857E-02   6.83214E-06       0.000      -1.86556E-17   1.02818E-16     0.000    
              4   5.00000E+01   2.03857E-02   6.83214E-06       0.000       0.00000E+00   0.00000E+00     0.000    
                                                                                                                          0.000
0       5     1   5.00000E+01  -3.83949E-03  -1.01116E-05       0.000      -2.46708E-17   1.28350E-16     0.000    
              2   5.00000E+01  -3.83949E-03  -1.01116E-05       0.000      -3.28943E-17   1.71133E-16     0.000    
              3   5.00000E+01  -3.83949E-03  -1.01116E-05       0.000      -2.46708E-17   1.28350E-16     0.000    
              4   5.00000E+01  -3.83949E-03  -1.01116E-05       0.000       0.00000E+00   0.00000E+00     0.000    
                                                                                                                          0.000
0       6     1   5.00000E+01   5.65553E+00   1.55773E-06       0.000       1.48069E-17  -8.17600E-17     0.000    
              2   5.00000E+01   5.65553E+00   1.55773E-06       0.000       1.97425E-17  -1.09013E-16     0.000    
              3   5.00000E+01   5.65553E+00   1.55773E-06       0.000       1.48069E-17  -8.17600E-17     0.000    
              4   5.00000E+01   5.65553E+00   1.55773E-06       0.000       0.00000E+00   0.00000E+00     0.000    
                                                                                                                          0.000
1     COMP04 ***COSMIS*** QUAD4 4-NODE STRAIGHT BEAM TEST                   /    95 SUN SOLARIS NASTRAN    / MAY 17, 95 / PAGE    15
      OUT-OF-PLANE SHEAR                                                                                                            
0     REGULAR SHAPE ELEMENTS ( ISOTROPIC PROPERTIES)                                                         SUBCASE 2              
 
                    S T R E S S E S   I N   L A Y E R E D   C O M P O S I T E   E L E M E N T S   ( Q U A D 4 )
0 ELEMENT   PLY *STRESSES IN FIBER AND MATRIX DIRECTIONS*  *DIRECT FIBER *  *INTER-LAMINAR STRESSES*  * SHEAR BOND  *   *MAXIMUM*
    ID      ID  *  NORMAL-1      NORMAL-2      SHEAR-12 *  *FAILURE INDEX*  *SHEAR-1Z      SHEAR-2Z*  *FAILURE INDEX*   * INDEX *

0       1     1   1.01250E+04  -3.75817E+02   2.93150E-01       0.000      -8.92492E+01   8.95528E+02     0.000    
              2   3.37500E+03  -1.25272E+02   9.77165E-02       0.000      -1.18999E+02   1.19404E+03     0.000    
              3  -3.37500E+03   1.25273E+02  -9.77165E-02       0.000      -8.92492E+01   8.95528E+02     0.000    
              4  -1.01250E+04   3.75817E+02  -2.93150E-01       0.000       0.00000E+00   0.00000E+00     0.000    
                                                                                                                          0.000
0       2     1   7.87500E+03   9.34956E+01   3.39681E-01       0.000      -5.35838E+00   4.36223E+02     0.000    
              2   2.62500E+03   3.11655E+01   1.13227E-01       0.000      -7.14451E+00   5.81631E+02     0.000    
              3  -2.62500E+03  -3.11655E+01  -1.13227E-01       0.000      -5.35838E+00   4.36223E+02     0.000    
              4  -7.87500E+03  -9.34956E+01  -3.39681E-01       0.000       0.00000E+00   0.00000E+00     0.000    
                                                                                                                          0.000
0       3     1   5.62500E+03  -2.73506E+01  -5.70013E-01       0.000      -1.74670E+01   5.01829E+02     0.000    
              2   1.87500E+03  -9.11688E+00  -1.90004E-01       0.000      -2.32894E+01   6.69105E+02     0.000    
              3  -1.87500E+03   9.11670E+00   1.90004E-01       0.000      -1.74670E+01   5.01829E+02     0.000    
              4  -5.62500E+03   2.73503E+01   5.70013E-01       0.000       0.00000E+00   0.00000E+00     0.000    
                                                                                                                          0.000
0       4     1   3.37500E+03   2.44430E+01   3.30375E-01       0.000      -9.02361E+01   9.00501E+02     0.000    
              2   1.12500E+03   8.14771E+00   1.10125E-01       0.000      -1.20315E+02   1.20067E+03     0.000    
              3  -1.12500E+03  -8.14771E+00  -1.10125E-01       0.000      -9.02361E+01   9.00501E+02     0.000    
              4  -3.37500E+03  -2.44430E+01  -3.30375E-01       0.000       0.00000E+00   0.00000E+00     0.000    
                                                                                                                          0.000
0       5     1   1.12500E+03  -7.80509E+01  -6.04912E-02       0.000      -1.11675E+01   4.67697E+02     0.000    
              2   3.75000E+02  -2.60169E+01  -2.01637E-02       0.000      -1.48900E+01   6.23596E+02     0.000    
              3  -3.75000E+02   2.60169E+01   2.01637E-02       0.000      -1.11675E+01   4.67697E+02     0.000    
              4  -1.12500E+03   7.80509E+01   6.04912E-02       0.000       0.00000E+00   0.00000E+00     0.000    
                                                                                                                          0.000
0       6     1   1.23750E+04   1.52708E+03  -8.32917E-01       0.000      -2.41164E+01   5.39078E+02     0.000    
              2   4.12500E+03   5.09027E+02  -2.77639E-01       0.000      -3.21552E+01   7.18770E+02     0.000    
              3  -4.12500E+03  -5.09026E+02   2.77639E-01       0.000      -2.41164E+01   5.39078E+02     0.000    
              4  -1.23750E+04  -1.52708E+03   8.32917E-01       0.000       0.00000E+00   0.00000E+00     0.000    
                                                                                                                          0.000




                                        * * * END OF JOB * * *
1
 JOB TITLE =  COMP04 ***COSMIS*** QUAD4 4-NODE STRAIGHT BEAM TEST                
 DATE:  5/17/95
 END TIME: 16:39:17
 TOTAL WALL CLOCK TIME      2 SEC.
 
