     NASTRAN FILES=PLT2                                                              






                                  ****
                                *      *
                               *        *
                               *  N A S T R A N
                               *        *
                                *      *
                                  ****


                             SUN COMPUTER SYSTEMS    
                                SOLARIS VERSION

                          SYSTEM RELEASE -  1995 ED.

                                DISTRIBUTED BY

         COMPUTER SOFTWARE MANAGEMENT AND INFORMATION CENTER (COSMIC)
                 UNIVERSITY OF GEORGIA, ATHENS, GEORGIA 30602
                 PHONE: (706)542-3265      FAX: (706)542-4807
1                                                                           /    95 SUN SOLARIS NASTRAN    / MAY 17, 95 / PAGE     2
                                                                                                                                    
0                                                                                                                                   
                                                                                                         
                                                                                                         
                         INSTALLATION CENTER USER INFORMATION GIVEN IN THIS SECTION                      
                                                                                                         
                                     *********************************************                       
                                     *                                           *                       
                                     *  PLEASE READ THE COMMENT IN DEMO PROBLEM  *                       
                                     *  D01002A ABOUT SYSTEM TIMING CONSTANTS    *                       
                                     *                                           *                       
                                     *********************************************                       
                                                                                                         
                         ===X=    TOP OF PAGE REQUEST IF 'X' IS REPLACED BY '='                          
                                                                                                         
1                                                                           /    95 SUN SOLARIS NASTRAN    / MAY 17, 95 / PAGE     3
                                                                                                                                    
0                                                                                                                                   
0*** USER INFORMATION MESSAGE 225, GINO TIME CONSTANTS ARE BEING COMPUTED
     (SEE NASINFO FILE FOR ELIMINATION OF THESE COMPUTATIONS)
1                                                                           /    95 SUN SOLARIS NASTRAN    / MAY 17, 95 / PAGE     4
                                                                                                                                    
0        N A S T R A N    E X E C U T I V E    C O N T R O L    D E C K    E C H O                                                  
0                                                                                                                                   
                                                                                                                                    
                                                                                                                                    
     ID    T01271A,NASTRAN                                                           
     DIAG  40                                                                        
     SOL   1,0                                                                       
     APP   DISP                                                                      
     TIME  100                                                                       
     CEND                                                                            


0*** USER INFORMATION MESSAGE, TURN DIAG 48 ON FOR NASTRAN RELEASE NEWS, DIAG DEFINITION, NEW DMAP
         MODULES AND NEW BULKDATA CARDS INFORMATION
1     QUAD4 COMPOSITE TUBE - SYMMETRIC LAYUP [45/-45/0/90]S                 /    95 SUN SOLARIS NASTRAN    / MAY 17, 95 / PAGE     5
      NASTRAN TEST PROBLEM NO. T01-27-1A                                                                                            
0     TUBE UNDER CONSTANT PRESSURE P                                                                                                
0                                        C A S E    C O N T R O L   D E C K   E C H O                                               
                 CARD                                                                                                               
                 COUNT                                                                                                              
                  1      TITLE    = QUAD4 COMPOSITE TUBE - SYMMETRIC LAYUP [45/-45/0/90]S                
                  2      SUBTITLE = NASTRAN TEST PROBLEM NO. T01-27-1A                                   
                  3      LABEL    = TUBE UNDER CONSTANT PRESSURE P                                       
                  4      $                                                                               
                  5      $                                                                               
                  6      $    MODEL: SECTION OF A OPEN TUBE RADIUS R, UNDER PRESSURE P.                  
                  7      $           SYMMETRIC LAYUP [45/-45/0/90/90/0/-45/45]                           
                  8      $                                                                               
                  9      $        * *  HOOP LOADING FY FOR ELEMENT ID 8 * *                              
                 10      $                                                                               
                 11      $                                                                               
                 12      $        HOOP LOADING FY = P * R = 10.5 * 50 = 5.25E5                           
                 13      $                                                                               
                 14      $        THEORETICAL                                                            
                 15      $        ------------------------------------------------                       
                 16      $        5.25E2                                                                 
                 17      $                                                                               
                 18      $                                                                               
                 19      $        * * LAYER STRESSES FOR ELEMENT ID 8 * *                                
                 20      $                                                                               
                 21      $        ------------------------------------------------------                 
                 22      $                   SIG1           SIG2       TAU12                             
                 23      $         LAYER 1  2.524E2       1.741E1      2.277E1                           
                 24      $         LAYER 2  2.494E2       1.751E1     -2.276E1                           
                 25      $         LAYER 3 -2.259E2       3.231E1      1.944E-2                          
                 26      $         LAYER 4  7.271E2       2.652E0      1.556E-2                          
                 27      $         LAYER 5  7.270E2       2.660E0      5.054E-2                          
                 28      $         LAYER 6 -2.253E2       3.230E1     -8.551E-2                          
                 29      $         LAYER 7  2.534E2       1.741E1     -2.273E1                           
                 30      $         LAYER 8  2.477E2       1.759E1      2.272E1                           
                 31      $                                                                               
                 32      $                                                                               
                 33      $                                                                               
                 34      SPC   = 1                                                                       
                 35      SET 1 = 29,45,61,77                                                             
                 36      SET 2 = 8,24                                                                    
                 37      DISP(PRINT)   = 1                                                               
                 38      STRESS(LAYER) = 2                                                               
                 39      FORCE(PRINT)  = 2                                                               
                 40      SUBCASE 1                                                                       
                 41        LOAD = 1                                                                      
                 42      OUTPUT(PLOT)                                                                    
                 43      SET 1  = ALL                                                                    
                 44      PLOT SET 1                                                                      
                 45      PLOT SET 1, HIDD                                                                
                 46      BEGIN BULK                                                                      
1     QUAD4 COMPOSITE TUBE - SYMMETRIC LAYUP [45/-45/0/90]S                 /    95 SUN SOLARIS NASTRAN    / MAY 17, 95 / PAGE     6
      NASTRAN TEST PROBLEM NO. T01-27-1A                                                                                            

      TUBE UNDER CONSTANT PRESSURE P                                                                                                






                        (NO. OF UNSORTED BULK DATA CARDS READ =   283, INCLUDING   0 COMMENT CARDS)
0*** USER INFORMATION MESSAGE 207, BULK DATA DECK IS NOT SORTED. NASTRAN WILL RE-ORDER THE INPUT DECK.
1     QUAD4 COMPOSITE TUBE - SYMMETRIC LAYUP [45/-45/0/90]S                 /    95 SUN SOLARIS NASTRAN    / MAY 17, 95 / PAGE     7
      NASTRAN TEST PROBLEM NO. T01-27-1A                                                                                            
0     TUBE UNDER CONSTANT PRESSURE P                                                                                                
0                                                 S O R T E D   B U L K    D A T A    E C H O                                       
                     CARD                                                                                                           
                     COUNT        ---1--- +++2+++ ---3--- +++4+++ ---5--- +++6+++ ---7--- +++8+++ ---9--- +++10+++                  
                    1-        CORD2C  1               0.0     0.0     0.0     0.0     0.0     1.0     +MOR1001
                    2-        +MOR10011.0     0.0     0.0                                                     
                    3-        CQUAD4  1       2       17      33      35      19                              
                    4-        CQUAD4  2       2       19      35      37      21                              
                    5-        CQUAD4  3       2       17      18      34      33                              
                    6-        CQUAD4  4       2       18      20      36      34                              
                    7-        CQUAD4  5       2       24      26      42      40                              
                    8-        CQUAD4  6       2       26      28      44      42                              
                    9-        CQUAD4  7       2       24      40      38      22                              
                   10-        CQUAD4  8       2       22      38      36      20                              
                   11-        CQUAD4  9       2       25      23      39      41                              
                   12-        CQUAD4  10      2       23      21      37      39                              
                   13-        CQUAD4  11      2       25      41      43      27                              
                   14-        CQUAD4  12      2       27      43      45      29                              
                   15-        CQUAD4  13      2       32      48      46      30                              
                   16-        CQUAD4  14      2       30      46      44      28                              
                   17-        CQUAD4  15      2       32      31      47      48                              
                   18-        CQUAD4  16      2       31      29      45      47                              
                   19-        CQUAD4  17      2       33      49      51      35                              
                   20-        CQUAD4  18      2       35      51      53      37                              
                   21-        CQUAD4  19      2       33      34      50      49                              
                   22-        CQUAD4  20      2       34      36      52      50                              
                   23-        CQUAD4  21      2       40      42      58      56                              
                   24-        CQUAD4  22      2       42      44      60      58                              
                   25-        CQUAD4  23      2       40      56      54      38                              
                   26-        CQUAD4  24      2       38      54      52      36                              
                   27-        CQUAD4  25      2       41      39      55      57                              
                   28-        CQUAD4  26      2       39      37      53      55                              
                   29-        CQUAD4  27      2       41      57      59      43                              
                   30-        CQUAD4  28      2       43      59      61      45                              
                   31-        CQUAD4  29      2       48      64      62      46                              
                   32-        CQUAD4  30      2       46      62      60      44                              
                   33-        CQUAD4  31      2       48      47      63      64                              
                   34-        CQUAD4  32      2       47      45      61      63                              
                   35-        CQUAD4  33      2       49      65      67      51                              
                   36-        CQUAD4  34      2       51      67      69      53                              
                   37-        CQUAD4  35      2       49      50      66      65                              
                   38-        CQUAD4  36      2       50      52      68      66                              
                   39-        CQUAD4  37      2       56      58      74      72                              
                   40-        CQUAD4  38      2       58      60      76      74                              
                   41-        CQUAD4  39      2       56      72      70      54                              
                   42-        CQUAD4  40      2       54      70      68      52                              
                   43-        CQUAD4  41      2       57      55      71      73                              
                   44-        CQUAD4  42      2       55      53      69      71                              
                   45-        CQUAD4  43      2       57      73      75      59                              
                   46-        CQUAD4  44      2       59      75      77      61                              
                   47-        CQUAD4  45      2       64      80      78      62                              
1     QUAD4 COMPOSITE TUBE - SYMMETRIC LAYUP [45/-45/0/90]S                 /    95 SUN SOLARIS NASTRAN    / MAY 17, 95 / PAGE     8
      NASTRAN TEST PROBLEM NO. T01-27-1A                                                                                            

      TUBE UNDER CONSTANT PRESSURE P                                                                                                

                                                  S O R T E D   B U L K    D A T A    E C H O                                       
                     CARD                                                                                                           
                     COUNT        ---1--- +++2+++ ---3--- +++4+++ ---5--- +++6+++ ---7--- +++8+++ ---9--- +++10+++                  
                   48-        CQUAD4  46      2       62      78      76      60                              
                   49-        CQUAD4  47      2       64      63      79      80                              
                   50-        CQUAD4  48      2       63      61      77      79                              
                   51-        CQUAD4  49      2       65      81      83      67                              
                   52-        CQUAD4  50      2       67      83      85      69                              
                   53-        CQUAD4  51      2       65      66      82      81                              
                   54-        CQUAD4  52      2       66      68      84      82                              
                   55-        CQUAD4  53      2       72      74      90      88                              
                   56-        CQUAD4  54      2       74      76      92      90                              
                   57-        CQUAD4  55      2       72      88      86      70                              
                   58-        CQUAD4  56      2       70      86      84      68                              
                   59-        CQUAD4  57      2       73      71      87      89                              
                   60-        CQUAD4  58      2       71      69      85      87                              
                   61-        CQUAD4  59      2       73      89      91      75                              
                   62-        CQUAD4  60      2       75      91      93      77                              
                   63-        CQUAD4  61      2       80      96      94      78                              
                   64-        CQUAD4  62      2       78      94      92      76                              
                   65-        CQUAD4  63      2       80      79      95      96                              
                   66-        CQUAD4  64      2       79      77      93      95                              
                   67-        CQUAD4  65      2       81      97      99      83                              
                   68-        CQUAD4  66      2       83      99      101     85                              
                   69-        CQUAD4  67      2       81      82      98      97                              
                   70-        CQUAD4  68      2       82      84      100     98                              
                   71-        CQUAD4  69      2       88      90      106     104                             
                   72-        CQUAD4  70      2       90      92      108     106                             
                   73-        CQUAD4  71      2       88      104     102     86                              
                   74-        CQUAD4  72      2       86      102     100     84                              
                   75-        CQUAD4  73      2       89      87      103     105                             
                   76-        CQUAD4  74      2       87      85      101     103                             
                   77-        CQUAD4  75      2       89      105     107     91                              
                   78-        CQUAD4  76      2       91      107     109     93                              
                   79-        CQUAD4  77      2       96      112     110     94                              
                   80-        CQUAD4  78      2       94      110     108     92                              
                   81-        CQUAD4  79      2       96      95      111     112                             
                   82-        CQUAD4  80      2       95      93      109     111                             
                   83-        CQUAD4  81      2       97      113     115     99                              
                   84-        CQUAD4  82      2       99      115     117     101                             
                   85-        CQUAD4  83      2       97      98      114     113                             
                   86-        CQUAD4  84      2       98      100     116     114                             
                   87-        CQUAD4  85      2       104     106     122     120                             
                   88-        CQUAD4  86      2       106     108     124     122                             
                   89-        CQUAD4  87      2       104     120     118     102                             
                   90-        CQUAD4  88      2       102     118     116     100                             
                   91-        CQUAD4  89      2       105     103     119     121                             
                   92-        CQUAD4  90      2       103     101     117     119                             
                   93-        CQUAD4  91      2       105     121     123     107                             
                   94-        CQUAD4  92      2       107     123     125     109                             
1     QUAD4 COMPOSITE TUBE - SYMMETRIC LAYUP [45/-45/0/90]S                 /    95 SUN SOLARIS NASTRAN    / MAY 17, 95 / PAGE     9
      NASTRAN TEST PROBLEM NO. T01-27-1A                                                                                            

      TUBE UNDER CONSTANT PRESSURE P                                                                                                

                                                  S O R T E D   B U L K    D A T A    E C H O                                       
                     CARD                                                                                                           
                     COUNT        ---1--- +++2+++ ---3--- +++4+++ ---5--- +++6+++ ---7--- +++8+++ ---9--- +++10+++                  
                   95-        CQUAD4  93      2       112     128     126     110                             
                   96-        CQUAD4  94      2       110     126     124     108                             
                   97-        CQUAD4  95      2       112     111     127     128                             
                   98-        CQUAD4  96      2       111     109     125     127                             
                   99-        CQUAD4  97      2       113     129     131     115                             
                  100-        CQUAD4  98      2       115     131     133     117                             
                  101-        CQUAD4  99      2       113     114     130     129                             
                  102-        CQUAD4  100     2       114     116     132     130                             
                  103-        CQUAD4  101     2       120     122     138     136                             
                  104-        CQUAD4  102     2       122     124     140     138                             
                  105-        CQUAD4  103     2       120     136     134     118                             
                  106-        CQUAD4  104     2       118     134     132     116                             
                  107-        CQUAD4  105     2       121     119     135     137                             
                  108-        CQUAD4  106     2       119     117     133     135                             
                  109-        CQUAD4  107     2       121     137     139     123                             
                  110-        CQUAD4  108     2       123     139     141     125                             
                  111-        CQUAD4  109     2       128     144     142     126                             
                  112-        CQUAD4  110     2       126     142     140     124                             
                  113-        CQUAD4  111     2       128     127     143     144                             
                  114-        CQUAD4  112     2       127     125     141     143                             
                  115-        CQUAD4  113     2       1       17      19      3                               
                  116-        CQUAD4  114     2       3       19      21      5                               
                  117-        CQUAD4  115     2       1       2       18      17                              
                  118-        CQUAD4  116     2       2       4       20      18                              
                  119-        CQUAD4  117     2       8       10      26      24                              
                  120-        CQUAD4  118     2       10      12      28      26                              
                  121-        CQUAD4  119     2       8       24      22      6                               
                  122-        CQUAD4  120     2       6       22      20      4                               
                  123-        CQUAD4  121     2       9       7       23      25                              
                  124-        CQUAD4  122     2       7       5       21      23                              
                  125-        CQUAD4  123     2       9       25      27      11                              
                  126-        CQUAD4  124     2       11      27      29      13                              
                  127-        CQUAD4  125     2       16      32      30      14                              
                  128-        CQUAD4  126     2       14      30      28      12                              
                  129-        CQUAD4  127     2       16      15      31      32                              
                  130-        CQUAD4  128     2       15      13      29      31                              
                  131-        GRID    1       1       50.000  180.000 0.000                                   
                  132-        GRID    2       1       50.000  202.500 0.000                                   
                  133-        GRID    3       1       50.000  157.500 0.000                                   
                  134-        GRID    4       1       50.000  225.000 0.000                                   
                  135-        GRID    5       1       50.000  135.000 0.000                                   
                  136-        GRID    6       1       50.000  247.500 0.000                                   
                  137-        GRID    7       1       50.000  112.500 0.000                                   
                  138-        GRID    8       1       50.000  270.000 0.000                                   
                  139-        GRID    9       1       50.000  90.000  0.000                                   
                  140-        GRID    10      1       50.000  292.500 0.000                                   
                  141-        GRID    11      1       50.000  67.500  0.000                                   
1     QUAD4 COMPOSITE TUBE - SYMMETRIC LAYUP [45/-45/0/90]S                 /    95 SUN SOLARIS NASTRAN    / MAY 17, 95 / PAGE    10
      NASTRAN TEST PROBLEM NO. T01-27-1A                                                                                            

      TUBE UNDER CONSTANT PRESSURE P                                                                                                

                                                  S O R T E D   B U L K    D A T A    E C H O                                       
                     CARD                                                                                                           
                     COUNT        ---1--- +++2+++ ---3--- +++4+++ ---5--- +++6+++ ---7--- +++8+++ ---9--- +++10+++                  
                  142-        GRID    12      1       50.000  315.000 0.000                                   
                  143-        GRID    13      1       50.000  45.000  0.000                                   
                  144-        GRID    14      1       50.000  337.500 0.000                                   
                  145-        GRID    15      1       50.000  22.500  0.000                                   
                  146-        GRID    16      1       50.000  0.000   0.000                                   
                  147-        GRID    17      1       50.000  180.000 10.000                                  
                  148-        GRID    18      1       50.000  202.500 10.000                                  
                  149-        GRID    19      1       50.000  157.500 10.000                                  
                  150-        GRID    20      1       50.000  225.000 10.000                                  
                  151-        GRID    21      1       50.000  135.000 10.000                                  
                  152-        GRID    22      1       50.000  247.500 10.000                                  
                  153-        GRID    23      1       50.000  112.500 10.000                                  
                  154-        GRID    24      1       50.000  270.000 10.000                                  
                  155-        GRID    25      1       50.000  90.000  10.000                                  
                  156-        GRID    26      1       50.000  292.500 10.000                                  
                  157-        GRID    27      1       50.000  67.500  10.000                                  
                  158-        GRID    28      1       50.000  315.000 10.000                                  
                  159-        GRID    29      1       50.000  45.000  10.000                                  
                  160-        GRID    30      1       50.000  337.500 10.000                                  
                  161-        GRID    31      1       50.000  22.500  10.000                                  
                  162-        GRID    32      1       50.000  0.000   10.000                                  
                  163-        GRID    33      1       50.000  180.000 20.000                                  
                  164-        GRID    34      1       50.000  202.500 20.000                                  
                  165-        GRID    35      1       50.000  157.500 20.000                                  
                  166-        GRID    36      1       50.000  225.000 20.000                                  
                  167-        GRID    37      1       50.000  135.000 20.000                                  
                  168-        GRID    38      1       50.000  247.500 20.000                                  
                  169-        GRID    39      1       50.000  112.500 20.000                                  
                  170-        GRID    40      1       50.000  270.000 20.000                                  
                  171-        GRID    41      1       50.000  90.000  20.000                                  
                  172-        GRID    42      1       50.000  292.500 20.000                                  
                  173-        GRID    43      1       50.000  67.500  20.000                                  
                  174-        GRID    44      1       50.000  315.000 20.000                                  
                  175-        GRID    45      1       50.000  45.000  20.000                                  
                  176-        GRID    46      1       50.000  337.500 20.000                                  
                  177-        GRID    47      1       50.000  22.500  20.000                                  
                  178-        GRID    48      1       50.000  0.000   20.000                                  
                  179-        GRID    49      1       50.000  180.000 30.000                                  
                  180-        GRID    50      1       50.000  202.500 30.000                                  
                  181-        GRID    51      1       50.000  157.500 30.000                                  
                  182-        GRID    52      1       50.000  225.000 30.000                                  
                  183-        GRID    53      1       50.000  135.000 30.000                                  
                  184-        GRID    54      1       50.000  247.500 30.000                                  
                  185-        GRID    55      1       50.000  112.500 30.000                                  
                  186-        GRID    56      1       50.000  270.000 30.000                                  
                  187-        GRID    57      1       50.000  90.000  30.000                                  
                  188-        GRID    58      1       50.000  292.500 30.000                                  
1     QUAD4 COMPOSITE TUBE - SYMMETRIC LAYUP [45/-45/0/90]S                 /    95 SUN SOLARIS NASTRAN    / MAY 17, 95 / PAGE    11
      NASTRAN TEST PROBLEM NO. T01-27-1A                                                                                            

      TUBE UNDER CONSTANT PRESSURE P                                                                                                

                                                  S O R T E D   B U L K    D A T A    E C H O                                       
                     CARD                                                                                                           
                     COUNT        ---1--- +++2+++ ---3--- +++4+++ ---5--- +++6+++ ---7--- +++8+++ ---9--- +++10+++                  
                  189-        GRID    59      1       50.000  67.500  30.000                                  
                  190-        GRID    60      1       50.000  315.000 30.000                                  
                  191-        GRID    61      1       50.000  45.000  30.000                                  
                  192-        GRID    62      1       50.000  337.500 30.000                                  
                  193-        GRID    63      1       50.000  22.500  30.000                                  
                  194-        GRID    64      1       50.000  0.000   30.000                                  
                  195-        GRID    65      1       50.000  180.000 40.000                                  
                  196-        GRID    66      1       50.000  202.500 40.000                                  
                  197-        GRID    67      1       50.000  157.500 40.000                                  
                  198-        GRID    68      1       50.000  225.000 40.000                                  
                  199-        GRID    69      1       50.000  135.000 40.000                                  
                  200-        GRID    70      1       50.000  247.500 40.000                                  
                  201-        GRID    71      1       50.000  112.500 40.000                                  
                  202-        GRID    72      1       50.000  270.000 40.000                                  
                  203-        GRID    73      1       50.000  90.000  40.000                                  
                  204-        GRID    74      1       50.000  292.500 40.000                                  
                  205-        GRID    75      1       50.000  67.500  40.000                                  
                  206-        GRID    76      1       50.000  315.000 40.000                                  
                  207-        GRID    77      1       50.000  45.000  40.000                                  
                  208-        GRID    78      1       50.000  337.500 40.000                                  
                  209-        GRID    79      1       50.000  22.500  40.000                                  
                  210-        GRID    80      1       50.000  0.000   40.000                                  
                  211-        GRID    81      1       50.000  180.000 50.000                                  
                  212-        GRID    82      1       50.000  202.500 50.000                                  
                  213-        GRID    83      1       50.000  157.500 50.000                                  
                  214-        GRID    84      1       50.000  225.000 50.000                                  
                  215-        GRID    85      1       50.000  135.000 50.000                                  
                  216-        GRID    86      1       50.000  247.500 50.000                                  
                  217-        GRID    87      1       50.000  112.500 50.000                                  
                  218-        GRID    88      1       50.000  270.000 50.000                                  
                  219-        GRID    89      1       50.000  90.000  50.000                                  
                  220-        GRID    90      1       50.000  292.500 50.000                                  
                  221-        GRID    91      1       50.000  67.500  50.000                                  
                  222-        GRID    92      1       50.000  315.000 50.000                                  
                  223-        GRID    93      1       50.000  45.000  50.000                                  
                  224-        GRID    94      1       50.000  337.500 50.000                                  
                  225-        GRID    95      1       50.000  22.500  50.000                                  
                  226-        GRID    96      1       50.000  0.000   50.000                                  
                  227-        GRID    97      1       50.000  180.000 60.000                                  
                  228-        GRID    98      1       50.000  202.500 60.000                                  
                  229-        GRID    99      1       50.000  157.500 60.000                                  
                  230-        GRID    100     1       50.000  225.000 60.000                                  
                  231-        GRID    101     1       50.000  135.000 60.000                                  
                  232-        GRID    102     1       50.000  247.500 60.000                                  
                  233-        GRID    103     1       50.000  112.500 60.000                                  
                  234-        GRID    104     1       50.000  270.000 60.000                                  
                  235-        GRID    105     1       50.000  90.000  60.000                                  
1     QUAD4 COMPOSITE TUBE - SYMMETRIC LAYUP [45/-45/0/90]S                 /    95 SUN SOLARIS NASTRAN    / MAY 17, 95 / PAGE    12
      NASTRAN TEST PROBLEM NO. T01-27-1A                                                                                            

      TUBE UNDER CONSTANT PRESSURE P                                                                                                

                                                  S O R T E D   B U L K    D A T A    E C H O                                       
                     CARD                                                                                                           
                     COUNT        ---1--- +++2+++ ---3--- +++4+++ ---5--- +++6+++ ---7--- +++8+++ ---9--- +++10+++                  
                  236-        GRID    106     1       50.000  292.500 60.000                                  
                  237-        GRID    107     1       50.000  67.500  60.000                                  
                  238-        GRID    108     1       50.000  315.000 60.000                                  
                  239-        GRID    109     1       50.000  45.000  60.000                                  
                  240-        GRID    110     1       50.000  337.500 60.000                                  
                  241-        GRID    111     1       50.000  22.500  60.000                                  
                  242-        GRID    112     1       50.000  0.000   60.000                                  
                  243-        GRID    113     1       50.000  180.000 70.000                                  
                  244-        GRID    114     1       50.000  202.500 70.000                                  
                  245-        GRID    115     1       50.000  157.500 70.000                                  
                  246-        GRID    116     1       50.000  225.000 70.000                                  
                  247-        GRID    117     1       50.000  135.000 70.000                                  
                  248-        GRID    118     1       50.000  247.500 70.000                                  
                  249-        GRID    119     1       50.000  112.500 70.000                                  
                  250-        GRID    120     1       50.000  270.000 70.000                                  
                  251-        GRID    121     1       50.000  90.000  70.000                                  
                  252-        GRID    122     1       50.000  292.500 70.000                                  
                  253-        GRID    123     1       50.000  67.500  70.000                                  
                  254-        GRID    124     1       50.000  315.000 70.000                                  
                  255-        GRID    125     1       50.000  45.000  70.000                                  
                  256-        GRID    126     1       50.000  337.500 70.000                                  
                  257-        GRID    127     1       50.000  22.500  70.000                                  
                  258-        GRID    128     1       50.000  0.000   70.000                                  
                  259-        GRID    129     1       50.000  180.000 80.000                                  
                  260-        GRID    130     1       50.000  202.500 80.000                                  
                  261-        GRID    131     1       50.000  157.500 80.000                                  
                  262-        GRID    132     1       50.000  225.000 80.000                                  
                  263-        GRID    133     1       50.000  135.000 80.000                                  
                  264-        GRID    134     1       50.000  247.500 80.000                                  
                  265-        GRID    135     1       50.000  112.500 80.000                                  
                  266-        GRID    136     1       50.000  270.000 80.000                                  
                  267-        GRID    137     1       50.000  90.000  80.000                                  
                  268-        GRID    138     1       50.000  292.500 80.000                                  
                  269-        GRID    139     1       50.000  67.500  80.000                                  
                  270-        GRID    140     1       50.000  315.000 80.000                                  
                  271-        GRID    141     1       50.000  45.000  80.000                                  
                  272-        GRID    142     1       50.000  337.500 80.000                                  
                  273-        GRID    143     1       50.000  22.500  80.000                                  
                  274-        GRID    144     1       50.000  0.000   80.000                                  
                  275-        MAT8    1       73.8 E+33.75 E+30.4     1.74 E+3                        +MA1    
                  276-        +MA1                            1680.   -229.0  20.9    -137.0  82.9            
                  277-        PCOMP   2       -0.96           10000.0 HILL                    SYM     +PC1    
                  278-        +PC1    1       .24     45.0    YES                     -45.0   YES     +PC2    
                  279-        +PC2                    0.0     YES                     90.0    YES             
                  280-        PLOAD4  1       1       10.5                            THRU    128             
                  281-        SPC1    1       3       1       9       16      24                              
                  282-        SPC1    1       145     9       24      136     137                             
1     QUAD4 COMPOSITE TUBE - SYMMETRIC LAYUP [45/-45/0/90]S                 /    95 SUN SOLARIS NASTRAN    / MAY 17, 95 / PAGE    13
      NASTRAN TEST PROBLEM NO. T01-27-1A                                                                                            

      TUBE UNDER CONSTANT PRESSURE P                                                                                                

                                                  S O R T E D   B U L K    D A T A    E C H O                                       
                     CARD                                                                                                           
                     COUNT        ---1--- +++2+++ ---3--- +++4+++ ---5--- +++6+++ ---7--- +++8+++ ---9--- +++10+++                  
                  283-        SPC1    1       245     1       16      129     144                             
                              ENDDATA
1     QUAD4 COMPOSITE TUBE - SYMMETRIC LAYUP [45/-45/0/90]S                 /    95 SUN SOLARIS NASTRAN    / MAY 17, 95 / PAGE    14
      NASTRAN TEST PROBLEM NO. T01-27-1A                                                                                            
0     TUBE UNDER CONSTANT PRESSURE P                                                                                                
0*** USER INFORMATION MESSAGES FROM RESEQUENCING PROCESSOR - BANDIT     (CRI= 1,  MTH= 3,  MPC= 0,  DEP=-1,  PCH=-1)

                               BEFORE RESEQUENCING - - -
                                        BANDWIDTH           19
                                        PROFILE           2453
                                        MAX WAVEFRONT       19
                                        AVG WAVEFRONT   17.035
                                        RMS WAVEFRONT   17.518
                                        RMS BANDWIDTH   17.769

                               AFTER RESEQUENCING BY GIBBS-POOLE-STOCKMEYER (GPS) ALGORITHM - - -
                                        BANDWIDTH           29
                                        PROFILE           2878
                                        MAX WAVEFRONT       29
                                        AVG WAVEFRONT   19.986
                                        RMS WAVEFRONT   21.431
                                        RMS BANDWIDTH   21.941


                                                     *** BANDIT SUMMARY ***

                                                                        BEFORE     AFTER
                                        BANDWIDTH (B)                       19        19
                                        PROFILE (P)                       2453      2453
                                        MAXIMUM WAVEFRONT (C-MAX)           19        19
                                        AVERAGE WAVEFRONT (C-AVG)       17.035    17.035
                                        RMS WAVEFRONT (C-RMS)           17.518    17.518
                                        RMS BANDWITCH (B-RMS)           17.769    17.769
                                        NUMBER OF GRID POINTS (N)                    144
                                        NUMBER OF ELEMENTS (NON-RIGID)               128
                                        NUMBER OF RIGID ELEMENTS PROCESSED*            0
                                        NUMBER OF MPC  EQUATIONS PROCESSED*            0
                                        NUMBER OF COMPONENTS                           1
                                        MAXIMUM NODAL DEGREE                           8
                                        MINIMUM NODAL DEGREE                           5
                                        NUMBER OF UNIQUE EDGES                       528
                                        MATRIX DENSITY, PERCENT                    5.787
                                        NUMBER OF POINTS OF ZERO DEGREE                0
                                        BANDIT OPEN CORE                         1998969
                                        CRITERION*                         RMS WAVEFRONT
                                        METHOD USED*                                 GPS

                               (* THESE DEFAULT OPTIONS CAN BE OVERRIDDEN BY THE NASTRAN CARD)


                               BANDIT FINDS GRID POINT RE-SEQUENCING NOT NECESSARY
0         **NO ERRORS FOUND - EXECUTE NASTRAN PROGRAM**
0*** USER INFORMATION MESSAGE, PLOT FILE GOES TO PLT2
1     QUAD4 COMPOSITE TUBE - SYMMETRIC LAYUP [45/-45/0/90]S                 /    95 SUN SOLARIS NASTRAN    / MAY 17, 95 / PAGE    15
      NASTRAN TEST PROBLEM NO. T01-27-1A                                                                                            
0     TUBE UNDER CONSTANT PRESSURE P                                                                                                
                                                  MESSAGES FROM THE PLOT MODULE                                                   





 P L O T T E R    D A T A                                                                                                           
                                                                                                                                    
          THE FOLLOWING PLOTS ARE FOR A NASTPLT MICROFILM PLOTTER WITHOUT TYPING CAPABILITY                                         
                                                                                                                                    
          AN END-OF-FILE MARK FOLLOWS THE LAST PLOT                                                                                 
                                                                                                                                    
          THE FIRST COMMAND FOR EACH PLOT CONTAINS THE PLOT NUMBER                                                                  
                                                                                                                                    
          CSCALE =  1.00                                                                                                            
                                                                                                                                    
          THE FOLLOWING PLOTS ARE REQUESTED ON PAPER ONLY                                                                           
                                                                                                                                    




 E N G I N E E R I N G    D A T A                                                                                                   
                                                                                                                                    
          ORTHOGRAPHIC PROJECTION                                                                                                   
          ROTATIONS (DEGREES) - GAMMA =  34.27, BETA =  23.17, ALPHA =   0.00,  AXES = +X,+Y,+Z, SYMMETRIC                          
          SCALE (OBJECT-TO-PLOT SIZE) = 5.653119E-02                                                                                
                                                                                                                                    
          ORIGIN       0   -   X0 = -3.253665E+00, Y0 = -0.153062E+01     (INCHES)                                                  




                                                  PLOT MODULE MESSAGES CONTINUE                                                     
                                                                                                                                    
                                                 PLOT        1  UNDEFORMED SHAPE                                                    
                                                 ORIGIN      0  USED IN THIS PLOT                                                   
1     QUAD4 COMPOSITE TUBE - SYMMETRIC LAYUP [45/-45/0/90]S                 /    95 SUN SOLARIS NASTRAN    / MAY 17, 95 / PAGE    16
      NASTRAN TEST PROBLEM NO. T01-27-1A                                                                                            
0     TUBE UNDER CONSTANT PRESSURE P                                                                                                
                                                  MESSAGES FROM THE PLOT MODULE                                                   





 P L O T T E R    D A T A                                                                                                           
                                                                                                                                    
          THE FOLLOWING PLOTS ARE FOR A NASTPLT MICROFILM PLOTTER WITHOUT TYPING CAPABILITY                                         
                                                                                                                                    
          AN END-OF-FILE MARK FOLLOWS THE LAST PLOT                                                                                 
                                                                                                                                    
          THE FIRST COMMAND FOR EACH PLOT CONTAINS THE PLOT NUMBER                                                                  
                                                                                                                                    
          CSCALE =  1.00                                                                                                            
                                                                                                                                    
          THE FOLLOWING PLOTS ARE REQUESTED ON PAPER ONLY                                                                           
                                                                                                                                    




 E N G I N E E R I N G    D A T A                                                                                                   
                                                                                                                                    
          ORTHOGRAPHIC PROJECTION                                                                                                   
          ROTATIONS (DEGREES) - GAMMA =  34.27, BETA =  23.17, ALPHA =   0.00,  AXES = +X,+Y,+Z, SYMMETRIC                          
          SCALE (OBJECT-TO-PLOT SIZE) = 5.653119E-02                                                                                
                                                                                                                                    
          ORIGIN       0   -   X0 = -3.253665E+00, Y0 = -0.153062E+01     (INCHES)                                                  




                                                  PLOT MODULE MESSAGES CONTINUE                                                     
                                                                                                                                    
                                                 PLOT        2  UNDEFORMED SHAPE                                                    
                                                 ORIGIN      0  USED IN THIS PLOT                                                   
1     QUAD4 COMPOSITE TUBE - SYMMETRIC LAYUP [45/-45/0/90]S                 /    95 SUN SOLARIS NASTRAN    / MAY 17, 95 / PAGE    17
      NASTRAN TEST PROBLEM NO. T01-27-1A                                                                                            

      TUBE UNDER CONSTANT PRESSURE P                                                                                                






         THE INPUT PCOMP, PCOMP1 OR PCOMP2 BULK DATA ENTRIES HAVE BEEN REPLACED BY THE FOLLOWING PSHELL AND MAT2 ENTRIES.


 PSHELL             2   100000002  1.9200E+00   200000002  1.0000E+00   300000002  1.0000E+00  0.0000E+00
          -9.6000E-01  9.6000E-01           0         0.0         0.0  0.0000E+00

 MAT2       100000002  3.0568E+04  1.0037E+04  0.0000E+00  3.0568E+04  0.0000E+00  1.0265E+04  0.0000E+00
                  0.0         0.0         0.0         0.0         0.0         0.0         0.0         0.0

 MAT2       200000002  2.7484E+04  1.6431E+04  4.9658E+03  2.0863E+04  4.9658E+03  1.6659E+04  0.0000E+00
                  0.0         0.0         0.0         0.0         0.0         0.0         0.0         0.0

 MAT2       300000002  0.0000E+00  0.0000E+00  0.0000E+00  0.0000E+00  0.0000E+00  0.0000E+00  0.0000E+00
                  0.0         0.0         0.0         0.0         0.0         0.0         0.0         0.0
0*** USER INFORMATION MESSAGE 238, TURN DIAG 38 ON FOR ADDITIONAL ELEMENT PROCESSING INFORMATION

0*** USER INFORMATION MESSAGE 3113,
     EMG MODULE PROCESSING DOUBLE PRECISION QUAD4    ELEMENTS (ELEMENT TYPE  64) STARTING WITH ID        1
0*** USER WARNING MESSAGE 3017
0    ONE OR MORE POTENTIAL SINGULARITIES HAVE NOT BEEN REMOVED BY SINGLE OR MULTI-POINT CONSTRAINTS.
     (USER COULD REQUEST NASTRAN AUTOMATIC SPC GENERATION VIA A 'PARAM AUTOSPC' BULK DATA CARD)
1     QUAD4 COMPOSITE TUBE - SYMMETRIC LAYUP [45/-45/0/90]S                 /    95 SUN SOLARIS NASTRAN    / MAY 17, 95 / PAGE    18
      NASTRAN TEST PROBLEM NO. T01-27-1A                                                                                            
0     TUBE UNDER CONSTANT PRESSURE P                                                                                                
 
                              G R I D   P O I N T   S I N G U L A R I T Y   T A B L E      SPC        1   MPC        0
        POINT          SINGULARITY                  LIST OF COORDINATE COMBINATIONS THAT WILL REMOVE SINGULARITY
         ID.   TYPE       ORDER       STRONGEST COMBINATION               WEAKER COMBINATION                 WEAKEST COMBINATION
             3   G          1          6                                    5                                                       
             6   G          1          6                                    4                                                       
            11   G          1          6                                    4                                                       
            14   G          1          6                                    5                                                       
            19   G          1          6                                    5                                                       
            22   G          1          6                                    4                                                       
            27   G          1          6                                    4                                                       
            30   G          1          6                                    5                                                       
            35   G          1          6                                    5                                                       
            38   G          1          6                                    4                                                       
            43   G          1          6                                    4                                                       
            46   G          1          6                                    5                                                       
            51   G          1          6                                    5                                                       
            54   G          1          6                                    4                                                       
            59   G          1          6                                    4                                                       
            62   G          1          6                                    5                                                       
            67   G          1          6                                    5                                                       
            70   G          1          6                                    4                                                       
            75   G          1          6                                    4                                                       
            78   G          1          6                                    5                                                       
            83   G          1          6                                    5                                                       
            86   G          1          6                                    4                                                       
            91   G          1          6                                    4                                                       
            94   G          1          6                                    5                                                       
            99   G          1          6                                    5                                                       
           102   G          1          6                                    4                                                       
           107   G          1          6                                    4                                                       
           110   G          1          6                                    5                                                       
           115   G          1          6                                    5                                                       
           118   G          1          6                                    4                                                       
           123   G          1          6                                    4                                                       
           126   G          1          6                                    5                                                       
           131   G          1          6                                    5                                                       
           134   G          1          6                                    4                                                       
           139   G          1          6                                    4                                                       
           142   G          1          6                                    5                                                       
1     QUAD4 COMPOSITE TUBE - SYMMETRIC LAYUP [45/-45/0/90]S                 /    95 SUN SOLARIS NASTRAN    / MAY 17, 95 / PAGE    19
      NASTRAN TEST PROBLEM NO. T01-27-1A                                                                                            

      TUBE UNDER CONSTANT PRESSURE P                                                                                                




0*** USER INFORMATION MESSAGE 3035
     FOR SUBCASE NUMBER     1, EPSILON SUB E =   5.9258493E-15
1     QUAD4 COMPOSITE TUBE - SYMMETRIC LAYUP [45/-45/0/90]S                 /    95 SUN SOLARIS NASTRAN    / MAY 17, 95 / PAGE    20
      NASTRAN TEST PROBLEM NO. T01-27-1A                                                                                            
0     TUBE UNDER CONSTANT PRESSURE P                                                                         SUBCASE 1              
 
                                             D I S P L A C E M E N T   V E C T O R
 
      POINT ID.   TYPE          T1             T2             T3             R1             R2             R3
            29      G      3.520101E-01   3.550113E-01  -2.920907E-02   2.350948E-04  -1.891600E-04   1.684360E-04                  
            45      G      3.498916E-01   3.529612E-01  -6.149850E-02   1.693388E-04  -2.354490E-04   8.040613E-05                  
            61      G      3.480139E-01   3.510054E-01  -9.381203E-02   2.247578E-04  -1.522831E-04  -7.958212E-06                  
            77      G      3.460445E-01   3.489399E-01  -1.261243E-01   1.785456E-04  -2.306766E-04  -1.139520E-04                  
1     QUAD4 COMPOSITE TUBE - SYMMETRIC LAYUP [45/-45/0/90]S                 /    95 SUN SOLARIS NASTRAN    / MAY 17, 95 / PAGE    21
      NASTRAN TEST PROBLEM NO. T01-27-1A                                                                                            
0     TUBE UNDER CONSTANT PRESSURE P                                                                         SUBCASE 1              
 
                      F O R C E S   I N   L A Y E R E D   C O M P O S I T E   E L E M E N T S   ( Q U A D 4 )

      ELEMENT                  - MEMBRANE  FORCES -                      - BENDING   MOMENTS -           - TRANSVERSE SHEAR FORCES -
        ID                FX            FY            FXY           MX            MY            MXY           VX            VY
0           8        -1.94407E-01   5.14856E+02  -4.19790E-01   1.63009E-01   1.69312E-01   7.97282E-01   6.00325E-02   7.72557E-03
0          24        -2.39557E-01   5.15045E+02  -4.94258E-01   2.74835E-01   2.33053E-01   9.49503E-01   1.08823E-01   5.54346E-02
1     QUAD4 COMPOSITE TUBE - SYMMETRIC LAYUP [45/-45/0/90]S                 /    95 SUN SOLARIS NASTRAN    / MAY 17, 95 / PAGE    22
      NASTRAN TEST PROBLEM NO. T01-27-1A                                                                                            
0     TUBE UNDER CONSTANT PRESSURE P                                                                         SUBCASE 1              
 
                    S T R E S S E S   I N   L A Y E R E D   C O M P O S I T E   E L E M E N T S   ( Q U A D 4 )
0 ELEMENT   PLY *STRESSES IN FIBER AND MATRIX DIRECTIONS*  *DIRECT FIBER *  *INTER-LAMINAR STRESSES*  * SHEAR BOND  *   *MAXIMUM*
    ID      ID  *  NORMAL-1      NORMAL-2      SHEAR-12 *  *FAILURE INDEX*  *SHEAR-1Z      SHEAR-2Z*  *FAILURE INDEX*   * INDEX *

0       8     1   2.52140E+02   1.74012E+01   2.27333E+01       0.789       1.62871E-02   2.78250E-03     0.000    
              2   2.49392E+02   1.74928E+01  -2.27339E+01       0.796       2.79207E-02   4.77001E-03     0.000    
              3  -2.25709E+02   3.22841E+01   1.49924E-02       3.496  *    5.23030E-02   4.98167E-03     0.000    
              4   7.26766E+02   2.64885E+00   1.97078E-02       0.203       5.27160E-02   6.37017E-03     0.000    
              5   7.26838E+02   2.65263E+00   5.44100E-02       0.203       5.23030E-02   4.98167E-03     0.000    
              6  -2.25567E+02   3.22978E+01  -8.91141E-02       3.497  *    2.79207E-02   4.77001E-03     0.000    
              7   2.53325E+02   1.74006E+01  -2.27369E+01       0.790       1.62871E-02   2.78250E-03     0.000    
              8   2.47471E+02   1.75888E+01   2.27375E+01       0.804      -9.33565E-09  -9.56948E-10     0.000    
                                             HILL FAILURE THEORY WAS USED FOR THIS ELEMENT.                               3.497  * 
0      24     1   2.52615E+02   1.74032E+01   2.27302E+01       0.790       2.95241E-02   1.99658E-02     0.000    
              2   2.49349E+02   1.75081E+01  -2.27346E+01       0.797       5.06127E-02   3.42271E-02     0.000    
              3  -2.25693E+02   3.22948E+01   1.75600E-02       3.498  *    9.48112E-02   3.57458E-02     0.000    
              4   7.27025E+02   2.64921E+00   2.32348E-02       0.203       9.55598E-02   4.57090E-02     0.000    
              5   7.27151E+02   2.64856E+00   6.40317E-02       0.203       9.48112E-02   3.57458E-02     0.000    
              6  -2.25876E+02   3.23103E+01  -1.04831E-01       3.502  *    5.06127E-02   3.42271E-02     0.000    
              7   2.53783E+02   1.73865E+01  -2.27569E+01       0.789       2.95241E-02   1.99658E-02     0.000    
              8   2.46861E+02   1.76052E+01   2.27613E+01       0.805      -1.69230E-08  -6.86656E-09     0.000    
                                             HILL FAILURE THEORY WAS USED FOR THIS ELEMENT.                               3.502  * 




                                        * * * END OF JOB * * *
1
 JOB TITLE =  QUAD4 COMPOSITE TUBE - SYMMETRIC LAYUP [45/-45/0/90]S              
 DATE:  5/17/95
 END TIME: 16:38:48
 TOTAL WALL CLOCK TIME      3 SEC.
 
