





                                  ****
                                *      *
                               *        *
                               *  N A S T R A N
                               *        *
                                *      *
                                  ****


                             SUN COMPUTER SYSTEMS    
                                SOLARIS VERSION

                          SYSTEM RELEASE -  1995 ED.

                                DISTRIBUTED BY

         COMPUTER SOFTWARE MANAGEMENT AND INFORMATION CENTER (COSMIC)
                 UNIVERSITY OF GEORGIA, ATHENS, GEORGIA 30602
                 PHONE: (706)542-3265      FAX: (706)542-4807
1                                                                           /    95 SUN SOLARIS NASTRAN    / MAY 17, 95 / PAGE     2
                                                                                                                                    
0                                                                                                                                   
                                                                                                         
                                                                                                         
                         INSTALLATION CENTER USER INFORMATION GIVEN IN THIS SECTION                      
                                                                                                         
                                     *********************************************                       
                                     *                                           *                       
                                     *  PLEASE READ THE COMMENT IN DEMO PROBLEM  *                       
                                     *  D01002A ABOUT SYSTEM TIMING CONSTANTS    *                       
                                     *                                           *                       
                                     *********************************************                       
                                                                                                         
                         ===X=    TOP OF PAGE REQUEST IF 'X' IS REPLACED BY '='                          
                                                                                                         
1                                                                           /    95 SUN SOLARIS NASTRAN    / MAY 17, 95 / PAGE     3
                                                                                                                                    
0                                                                                                                                   
0*** USER INFORMATION MESSAGE 225, GINO TIME CONSTANTS ARE BEING COMPUTED
     (SEE NASINFO FILE FOR ELIMINATION OF THESE COMPUTATIONS)
1                                                                           /    95 SUN SOLARIS NASTRAN    / MAY 17, 95 / PAGE     4
                                                                                                                                    
0        N A S T R A N    E X E C U T I V E    C O N T R O L    D E C K    E C H O                                                  
0                                                                                                                                   
                                                                                                                                    
                                                                                                                                    
     ID    T01261A,NASTRAN                                                           
     DIAG  40                                                                        
     SOL   1,0                                                                       
     APP   DISP                                                                      
     TIME  30                                                                        
     CEND                                                                            


0*** USER INFORMATION MESSAGE, TURN DIAG 48 ON FOR NASTRAN RELEASE NEWS, DIAG DEFINITION, NEW DMAP
         MODULES AND NEW BULKDATA CARDS INFORMATION
1     COMP01 **COSMIC** QUAD4 FLAT PLATE TEST                               /    95 SUN SOLARIS NASTRAN    / MAY 17, 95 / PAGE     5
      NASTRAN TEST PROBLEM NO. T01-26-1A                                                                                            
0     MESH 4X4 , ASPECT RATIO 1.0 SYMM CROSS-PLY [0/90/0]                                                                           
0                                        C A S E    C O N T R O L   D E C K   E C H O                                               
                 CARD                                                                                                               
                 COUNT                                                                                                              
                  1      TITLE    = COMP01 **COSMIC** QUAD4 FLAT PLATE TEST                              
                  2      SUBTITLE = NASTRAN TEST PROBLEM NO. T01-26-1A                                   
                  3      LABEL    = MESH 4X4 , ASPECT RATIO 1.0 SYMM CROSS-PLY [0/90/0]                  
                  4      $                                                                               
                  5      $    MODEL: A QUARTER MODEL OF A SIMPLY SUPPORTED FLAT PLATE                    
                  6      $           OF A SYMMETRIC CROSS-PLY CONFIGURATION [0/90/0].                    
                  7      $           UNDER A UNIFORM PRESSURE LOADING.                                   
                  8      $                                                                               
                  9      $       * * T3 DEFLECTION AT GRID 25 * *                                        
                 10      $                                                                               
                 11      $           THEORETICAL                                                         
                 12      $        ----------------------------------------------                         
                 13      $           -1.836E-3                                                           
                 14      $                                                                               
                 15      $                                                                               
                 16      $                                                                               
                 17      $   REFERENCE: JONES,R.M. , MECHANICS OF COMPOSITE MATERIALS.                   
                 18      $              M GRAW-HILL BOOK COMPANY.  (PAGE 248-250)                        
                 19      $                                                                               
                 20      $                                                                               
                 21      SET 1 = 2,7,12,17                                                               
                 22      DISP  = ALL                                                                     
                 23      STRESS(LAYER) = 1                                                               
                 24      FORCE = 1                                                                       
                 25      SUBCASE 1                                                                       
                 26          SUBTITLE = SIMPLE SUPPORTS, UNIFORM LOAD                                    
                 27          SPC  = 1                                                                    
                 28          LOAD = 1                                                                    
                 29      BEGIN BULK                                                                      


                        (NO. OF UNSORTED BULK DATA CARDS READ =    53, INCLUDING   0 COMMENT CARDS)
0*** USER INFORMATION MESSAGE 207, BULK DATA DECK IS NOT SORTED. NASTRAN WILL RE-ORDER THE INPUT DECK.
1     COMP01 **COSMIC** QUAD4 FLAT PLATE TEST                               /    95 SUN SOLARIS NASTRAN    / MAY 17, 95 / PAGE     6
      NASTRAN TEST PROBLEM NO. T01-26-1A                                                                                            
0     MESH 4X4 , ASPECT RATIO 1.0 SYMM CROSS-PLY [0/90/0]                                                                           
0                                                 S O R T E D   B U L K    D A T A    E C H O                                       
                     CARD                                                                                                           
                     COUNT        ---1--- +++2+++ ---3--- +++4+++ ---5--- +++6+++ ---7--- +++8+++ ---9--- +++10+++                  
                    1-        CQUAD4  2       1       1       6       7       2                               
                    2-        CQUAD4  3       1       6       11      12      7                               
                    3-        CQUAD4  4       1       11      16      17      12                              
                    4-        CQUAD4  5       1       16      21      22      17                              
                    5-        CQUAD4  6       1       2       7       8       3                               
                    6-        CQUAD4  7       1       7       12      13      8                               
                    7-        CQUAD4  8       1       12      17      18      13                              
                    8-        CQUAD4  9       1       17      22      23      18                              
                    9-        CQUAD4  10      1       3       8       9       4                               
                   10-        CQUAD4  11      1       8       13      14      9                               
                   11-        CQUAD4  12      1       13      18      19      14                              
                   12-        CQUAD4  13      1       18      23      24      19                              
                   13-        CQUAD4  14      1       4       9       10      5                               
                   14-        CQUAD4  15      1       9       14      15      10                              
                   15-        CQUAD4  16      1       14      19      20      15                              
                   16-        CQUAD4  17      1       19      24      25      20                              
                   17-        GRID    1               0.000   0.000   0.000                                   
                   18-        GRID    2               0.000   .250    0.000                                   
                   19-        GRID    3               0.000   .500    0.000                                   
                   20-        GRID    4               0.000   .750    0.000                                   
                   21-        GRID    5               0.000   1.000   0.000                                   
                   22-        GRID    6               .250    0.000   0.000                                   
                   23-        GRID    7               .250    .250    0.000                                   
                   24-        GRID    8               .250    .500    0.000                                   
                   25-        GRID    9               .250    .750    0.000                                   
                   26-        GRID    10              .250    1.000   0.000                                   
                   27-        GRID    11              .500    0.000   0.000                                   
                   28-        GRID    12              .500    .250    0.000                                   
                   29-        GRID    13              .500    .500    0.000                                   
                   30-        GRID    14              .500    .750    0.000                                   
                   31-        GRID    15              .500    1.000   0.000                                   
                   32-        GRID    16              .750    0.000   0.000                                   
                   33-        GRID    17              .750    .250    0.000                                   
                   34-        GRID    18              .750    .500    0.000                                   
                   35-        GRID    19              .750    .750    0.000                                   
                   36-        GRID    20              .750    1.000   0.000                                   
                   37-        GRID    21              1.000   0.000   0.000                                   
                   38-        GRID    22              1.000   .250    0.000                                   
                   39-        GRID    23              1.000   .500    0.000                                   
                   40-        GRID    24              1.000   .750    0.000                                   
                   41-        GRID    25              1.000   1.000   0.000                                   
                   42-        MAT8    1       20.0E+06.50  E+6.25     .250 E+6                                
                   43-        PARAM   AUTOSPC 1                                                               
                   44-        PCOMP   1       -.001                                                   +PC1    
                   45-        +PC1    1       .000666 0.0     YES     1       .000666 90.0    YES     +PC2    
                   46-        +PC2    1       .000666 0.0     YES                                             
                   47-        PLOAD4  1       2       -1.0E-04                        THRU    17              
1     COMP01 **COSMIC** QUAD4 FLAT PLATE TEST                               /    95 SUN SOLARIS NASTRAN    / MAY 17, 95 / PAGE     7
      NASTRAN TEST PROBLEM NO. T01-26-1A                                                                                            

      MESH 4X4 , ASPECT RATIO 1.0 SYMM CROSS-PLY [0/90/0]                                                                           

                                                  S O R T E D   B U L K    D A T A    E C H O                                       
                     CARD                                                                                                           
                     COUNT        ---1--- +++2+++ ---3--- +++4+++ ---5--- +++6+++ ---7--- +++8+++ ---9--- +++10+++                  
                   48-        SPC1    1       15      22      23      24                                      
                   49-        SPC1    1       24      10      15      20                                      
                   50-        SPC1    1       1234    2       3       4       5                               
                   51-        SPC1    1       1235    6       11      16      21                              
                   52-        SPC1    1       1245    25                                                      
                   53-        SPC1    1       12345   1                                                       
                              ENDDATA
1     COMP01 **COSMIC** QUAD4 FLAT PLATE TEST                               /    95 SUN SOLARIS NASTRAN    / MAY 17, 95 / PAGE     8
      NASTRAN TEST PROBLEM NO. T01-26-1A                                                                                            
0     MESH 4X4 , ASPECT RATIO 1.0 SYMM CROSS-PLY [0/90/0]                                                                           
0*** USER INFORMATION MESSAGES FROM RESEQUENCING PROCESSOR - BANDIT     (CRI= 1,  MTH= 3,  MPC= 0,  DEP=-1,  PCH=-1)

                               BEFORE RESEQUENCING - - -
                                        BANDWIDTH            7
                                        PROFILE            145
                                        MAX WAVEFRONT        7
                                        AVG WAVEFRONT    5.800
                                        RMS WAVEFRONT    6.043
                                        RMS BANDWIDTH    6.148

                               AFTER RESEQUENCING BY GIBBS-POOLE-STOCKMEYER (GPS) ALGORITHM - - -
                                        BANDWIDTH           10
                                        PROFILE            145
                                        MAX WAVEFRONT        8
                                        AVG WAVEFRONT    5.800
                                        RMS WAVEFRONT    6.070
                                        RMS BANDWIDTH    6.478


                                                     *** BANDIT SUMMARY ***

                                                                        BEFORE     AFTER
                                        BANDWIDTH (B)                        7         7
                                        PROFILE (P)                        145       145
                                        MAXIMUM WAVEFRONT (C-MAX)            7         7
                                        AVERAGE WAVEFRONT (C-AVG)        5.800     5.800
                                        RMS WAVEFRONT (C-RMS)            6.043     6.043
                                        RMS BANDWITCH (B-RMS)            6.148     6.148
                                        NUMBER OF GRID POINTS (N)                     25
                                        NUMBER OF ELEMENTS (NON-RIGID)                16
                                        NUMBER OF RIGID ELEMENTS PROCESSED*            0
                                        NUMBER OF MPC  EQUATIONS PROCESSED*            0
                                        NUMBER OF COMPONENTS                           1
                                        MAXIMUM NODAL DEGREE                           8
                                        MINIMUM NODAL DEGREE                           3
                                        NUMBER OF UNIQUE EDGES                        72
                                        MATRIX DENSITY, PERCENT                   27.040
                                        NUMBER OF POINTS OF ZERO DEGREE                0
                                        BANDIT OPEN CORE                         1998969
                                        CRITERION*                         RMS WAVEFRONT
                                        METHOD USED*                                 GPS

                               (* THESE DEFAULT OPTIONS CAN BE OVERRIDDEN BY THE NASTRAN CARD)


                               BANDIT FINDS GRID POINT RE-SEQUENCING NOT NECESSARY
0         **NO ERRORS FOUND - EXECUTE NASTRAN PROGRAM**


         THE INPUT PCOMP, PCOMP1 OR PCOMP2 BULK DATA ENTRIES HAVE BEEN REPLACED BY THE FOLLOWING PSHELL AND MAT2 ENTRIES.


 PSHELL             1   100000001  1.9980E-03   200000001  1.0000E+00   300000001  1.0000E+00  0.0000E+00
          -9.9900E-04  9.9900E-04   400000001         0.0         0.0  0.0000E+00

 MAT2       100000001  1.3521E+07  1.2520E+05  0.0000E+00  7.0110E+06  0.0000E+00  2.5000E+05  0.0000E+00
                  0.0         0.0         0.0         0.0         0.0         0.0         0.0         0.0

 MAT2       200000001  1.9308E+07  1.2520E+05  0.0000E+00  1.2241E+06  0.0000E+00  2.5000E+05  0.0000E+00
                  0.0         0.0         0.0         0.0         0.0         0.0         0.0         0.0

 MAT2       300000001  0.0000E+00  0.0000E+00  0.0000E+00  0.0000E+00  0.0000E+00  0.0000E+00  0.0000E+00
                  0.0         0.0         0.0         0.0         0.0         0.0         0.0         0.0

 MAT2       400000001  0.0000E+00  0.0000E+00  0.0000E+00  0.0000E+00  0.0000E+00  0.0000E+00  0.0000E+00
                  0.0         0.0         0.0         0.0         0.0         0.0         0.0         0.0
0*** USER INFORMATION MESSAGE 238, TURN DIAG 38 ON FOR ADDITIONAL ELEMENT PROCESSING INFORMATION

0*** USER INFORMATION MESSAGE 3113,
     EMG MODULE PROCESSING DOUBLE PRECISION QUAD4    ELEMENTS (ELEMENT TYPE  64) STARTING WITH ID        2
0*** USER INFORMATION MESSAGE 2435, AT USER'S REQUEST, ALL POTENTIAL SINGULARITIES HAVE BEEN REMOVED BY THE
     APPLICATION OF SINGLE POINT CONSTRAINTS.  REFER TO PRINTOUT OF AUTOMATICALLY GENERATED SPC1 CARDS FOR DETAILS.
1     COMP01 **COSMIC** QUAD4 FLAT PLATE TEST                               /    95 SUN SOLARIS NASTRAN    / MAY 17, 95 / PAGE     9
      NASTRAN TEST PROBLEM NO. T01-26-1A                                                                                            
0     MESH 4X4 , ASPECT RATIO 1.0 SYMM CROSS-PLY [0/90/0]                                                                           


                                A U T O M A T I C A L L Y   G E N E R A T E D   S P C 1   C A R D S
                CARD 
                COUNT        ---1--- +++2+++ ---3--- +++4+++ ---5--- +++6+++ ---7--- +++8+++ ---9--- +++10+++

                   1-        SPC1           1       6       1       2       3       4       5       6
                   2-        SPC1           1       6       7       8       9      10      11      12
                   3-        SPC1           1       6      13      14      15      16      17      18
                   4-        SPC1           1       6      19      20      21      22      23      24
                   5-        SPC1           1       6      25
0*** USER INFORMATION MESSAGE 3035
     FOR SUBCASE NUMBER     1, EPSILON SUB E =  -1.0122815E-12
1     COMP01 **COSMIC** QUAD4 FLAT PLATE TEST                               /    95 SUN SOLARIS NASTRAN    / MAY 17, 95 / PAGE    10
      SIMPLE SUPPORTS, UNIFORM LOAD                                                                                                 
0     MESH 4X4 , ASPECT RATIO 1.0 SYMM CROSS-PLY [0/90/0]                                                    SUBCASE 1              
 
                                             D I S P L A C E M E N T   V E C T O R
 
      POINT ID.   TYPE          T1             T2             T3             R1             R2             R3
             1      G      0.0            0.0            0.0            0.0            0.0            0.0                           
             2      G      0.0            0.0            0.0            0.0            1.262711E-03   0.0                           
             3      G      0.0            0.0            0.0            0.0            2.158530E-03   0.0                           
             4      G      0.0            0.0            0.0            0.0            2.634356E-03   0.0                           
             5      G      0.0            0.0            0.0            0.0            2.778547E-03   0.0                           
             6      G      0.0            0.0            0.0           -1.392570E-03   0.0            0.0                           
             7      G     -4.469569E-23   1.195123E-23  -3.171683E-04  -1.144243E-03   1.147424E-03   0.0                           
             8      G     -7.758552E-23   1.350141E-23  -5.450347E-04  -6.806349E-04   1.974323E-03   0.0                           
             9      G     -9.484205E-23   8.311058E-24  -6.673746E-04  -3.013071E-04   2.415793E-03   0.0                           
            10      G     -9.999072E-23   0.0           -7.045808E-04   0.0            2.548728E-03   0.0                           
            11      G      0.0            0.0            0.0           -2.524514E-03   0.0            0.0                           
            12      G     -5.273265E-23   2.589130E-23  -5.776741E-04  -2.095490E-03   8.496172E-04   0.0                           
            13      G     -9.190890E-23   2.913814E-23  -9.967480E-04  -1.259430E-03   1.479917E-03   0.0                           
            14      G     -1.125496E-22   1.786515E-23  -1.222715E-03  -5.524652E-04   1.821150E-03   0.0                           
            15      G     -1.186819E-22   0.0           -1.291190E-03   0.0            1.922708E-03   0.0                           
            16      G      0.0            0.0            0.0           -3.250013E-03   0.0            0.0                           
            17      G     -3.355534E-23   3.448619E-23  -7.463068E-04  -2.718339E-03   4.485454E-04   0.0                           
            18      G     -5.863987E-23   3.894970E-23  -1.292017E-03  -1.649412E-03   7.875820E-04   0.0                           
            19      G     -7.190301E-23   2.392138E-23  -1.587553E-03  -7.189288E-04   9.739256E-04   0.0                           
            20      G     -7.583031E-23   0.0           -1.676857E-03   0.0            1.029066E-03   0.0                           
            21      G      0.0            0.0            0.0           -3.499354E-03   0.0            0.0                           
            22      G      0.0            3.755175E-23  -8.045167E-04  -2.934397E-03   0.0            0.0                           
            23      G      0.0            4.242933E-23  -1.394497E-03  -1.787323E-03   0.0            0.0                           
            24      G      0.0            2.606165E-23  -1.714601E-03  -7.773828E-04   0.0            0.0                           
            25      G      0.0            0.0           -1.811241E-03   0.0            0.0            0.0                           
1     COMP01 **COSMIC** QUAD4 FLAT PLATE TEST                               /    95 SUN SOLARIS NASTRAN    / MAY 17, 95 / PAGE    11
      SIMPLE SUPPORTS, UNIFORM LOAD                                                                                                 
0     MESH 4X4 , ASPECT RATIO 1.0 SYMM CROSS-PLY [0/90/0]                                                    SUBCASE 1              
 
                      F O R C E S   I N   L A Y E R E D   C O M P O S I T E   E L E M E N T S   ( Q U A D 4 )

      ELEMENT                  - MEMBRANE  FORCES -                      - BENDING   MOMENTS -           - TRANSVERSE SHEAR FORCES -
        ID                FX            FY            FXY           MX            MY            MXY           VX            VY
0           2        -2.97725E-11   0.00000E+00   0.00000E+00   3.00037E-06   4.23287E-07  -1.64404E-06  -1.33411E-05  -2.40974E-06
0           7        -1.90544E-09  -5.95450E-11   0.00000E+00   2.05499E-05   2.24678E-06  -9.92763E-07  -2.57885E-05   5.04416E-06
0          12        -1.90544E-09   0.00000E+00   0.00000E+00   3.97880E-05   2.92082E-06  -3.60258E-07  -2.27885E-05   1.25677E-05
0          17        -1.90544E-09  -1.19090E-10   0.00000E+00   5.16594E-05   2.76828E-06  -3.77513E-08  -9.17540E-06   1.50271E-05
1     COMP01 **COSMIC** QUAD4 FLAT PLATE TEST                               /    95 SUN SOLARIS NASTRAN    / MAY 17, 95 / PAGE    12
      SIMPLE SUPPORTS, UNIFORM LOAD                                                                                                 
0     MESH 4X4 , ASPECT RATIO 1.0 SYMM CROSS-PLY [0/90/0]                                                    SUBCASE 1              
 
                    S T R E S S E S   I N   L A Y E R E D   C O M P O S I T E   E L E M E N T S   ( Q U A D 4 )
0 ELEMENT   PLY *STRESSES IN FIBER AND MATRIX DIRECTIONS*  *DIRECT FIBER *  *INTER-LAMINAR STRESSES*  * SHEAR BOND  *   *MAXIMUM*
    ID      ID  *  NORMAL-1      NORMAL-2      SHEAR-12 *  *FAILURE INDEX*  *SHEAR-1Z      SHEAR-2Z*  *FAILURE INDEX*   * INDEX *

0       2     1   3.11746E+00   1.84870E-01  -1.64733E+00       0.000      -9.23650E-03  -6.57860E-04     0.000    
              2  -3.95686E-13   7.46578E-15  -1.13687E-07       0.000      -9.23650E-03  -6.57861E-04     0.000    
              3  -3.11746E+00  -1.84870E-01   1.64733E+00       0.000      -1.98591E-09  -1.32604E-09     0.000    
                                                                                                                          0.000
0       7     1   2.13543E+01   9.99044E-01  -9.94751E-01       0.000      -1.78543E-02   1.37706E-03     0.000    
              2   2.27018E-06  -1.42331E-08   5.68434E-08       0.000      -1.78543E-02   1.37706E-03     0.000    
              3  -2.13543E+01  -9.99044E-01   9.94751E-01       0.000      -3.83878E-09   2.77572E-09     0.000    
                                                                                                                          0.000
0      12     1   4.13511E+01   1.34898E+00  -3.60980E-01       0.000      -1.57773E-02   3.43099E-03     0.000    
              2  -1.42330E-08  -5.69324E-08   2.84217E-08       0.000      -1.57773E-02   3.43099E-03     0.000    
              3  -4.13511E+01  -1.34898E+00   3.60980E-01       0.000      -3.39222E-09   6.91579E-09     0.000    
                                                                                                                          0.000
0      17     1   5.36927E+01   1.33212E+00  -3.78269E-02       0.000      -6.35245E-03   4.10241E-03     0.000    
              2  -2.30576E-06  -1.28098E-07   1.77635E-09       0.000      -6.35245E-03   4.10242E-03     0.000    
              3  -5.36927E+01  -1.33212E+00   3.78269E-02       0.000      -1.36582E-09   8.26917E-09     0.000    
                                                                                                                          0.000




                                        * * * END OF JOB * * *
1
 JOB TITLE =  COMP01 **COSMIC** QUAD4 FLAT PLATE TEST                            
 DATE:  5/17/95
 END TIME: 16:37:14
 TOTAL WALL CLOCK TIME      2 SEC.
 
