





                                  ****
                                *      *
                               *        *
                               *  N A S T R A N
                               *        *
                                *      *
                                  ****


                             SUN COMPUTER SYSTEMS    
                                SOLARIS VERSION

                          SYSTEM RELEASE -  1995 ED.

                                DISTRIBUTED BY

         COMPUTER SOFTWARE MANAGEMENT AND INFORMATION CENTER (COSMIC)
                 UNIVERSITY OF GEORGIA, ATHENS, GEORGIA 30602
                 PHONE: (706)542-3265      FAX: (706)542-4807
1                                                                           /    95 SUN SOLARIS NASTRAN    / MAY 17, 95 / PAGE     2
                                                                                                                                    
0                                                                                                                                   
                                                                                                         
                                                                                                         
                         INSTALLATION CENTER USER INFORMATION GIVEN IN THIS SECTION                      
                                                                                                         
                                     *********************************************                       
                                     *                                           *                       
                                     *  PLEASE READ THE COMMENT IN DEMO PROBLEM  *                       
                                     *  D01002A ABOUT SYSTEM TIMING CONSTANTS    *                       
                                     *                                           *                       
                                     *********************************************                       
                                                                                                         
                         ===X=    TOP OF PAGE REQUEST IF 'X' IS REPLACED BY '='                          
                                                                                                         
1                                                                           /    95 SUN SOLARIS NASTRAN    / MAY 17, 95 / PAGE     3
                                                                                                                                    
0                                                                                                                                   
0*** USER INFORMATION MESSAGE 225, GINO TIME CONSTANTS ARE BEING COMPUTED
     (SEE NASINFO FILE FOR ELIMINATION OF THESE COMPUTATIONS)
1                                                                           /    95 SUN SOLARIS NASTRAN    / MAY 17, 95 / PAGE     4
                                                                                                                                    
0        N A S T R A N    E X E C U T I V E    C O N T R O L    D E C K    E C H O                                                  
0                                                                                                                                   
                                                                                                                                    
                                                                                                                                    
     ID    T01291A,NASTRAN                                                           
     DIAG  40                                                                        
     SOL   1,0                                                                       
     APP   DISP                                                                      
     TIME  30                                                                        
     CEND                                                                            


0*** USER INFORMATION MESSAGE, TURN DIAG 48 ON FOR NASTRAN RELEASE NEWS, DIAG DEFINITION, NEW DMAP
         MODULES AND NEW BULKDATA CARDS INFORMATION
1     COMPO5 QUAD4 4-NODE SHELL ROOF TEST LAMINATED COMPOSITE SHELL         /    95 SUN SOLARIS NASTRAN    / MAY 17, 95 / PAGE     5
      NASTRAN TEST PROBLEM NO. T01-29-1A                                                                                            
0                                                                                                                                   
0                                        C A S E    C O N T R O L   D E C K   E C H O                                               
                 CARD                                                                                                               
                 COUNT                                                                                                              
                  1      TITLE    = COMPO5 QUAD4 4-NODE SHELL ROOF TEST LAMINATED COMPOSITE SHELL        
                  2      SUBTITLE = NASTRAN TEST PROBLEM NO. T01-29-1A                                   
                  3      $                                                                               
                  4      $                                                                               
                  5      $    MODEL: LAMINATED COMPOSITE SHELL ROOF MODEL.                               
                  6      $           SYMMETRIC ANGLE PLY LAYUP                                           
                  7      $           [ 45/-45/15/-15/-15/15/-45/45 ]                                     
                  8      $                                                                               
                  9      $                                                                               
                 10      SPC  = 1                                                                        
                 11      LOAD = 1                                                                        
                 12      DISP = ALL                                                                      
                 13      BEGIN BULK                                                                      


                        (NO. OF UNSORTED BULK DATA CARDS READ =   168, INCLUDING   0 COMMENT CARDS)
0*** USER INFORMATION MESSAGE 207, BULK DATA DECK IS NOT SORTED. NASTRAN WILL RE-ORDER THE INPUT DECK.
1     COMPO5 QUAD4 4-NODE SHELL ROOF TEST LAMINATED COMPOSITE SHELL         /    95 SUN SOLARIS NASTRAN    / MAY 17, 95 / PAGE     6
      NASTRAN TEST PROBLEM NO. T01-29-1A                                                                                            
0                                                                                                                                   
0                                                 S O R T E D   B U L K    D A T A    E C H O                                       
                     CARD                                                                                                           
                     COUNT        ---1--- +++2+++ ---3--- +++4+++ ---5--- +++6+++ ---7--- +++8+++ ---9--- +++10+++                  
                    1-        CORD2C  1               0.0     0.0     0.0     -1.0    0.0     0.0     +MOR1001
                    2-        +MOR10010.0     0.0     1.0                                                     
                    3-        CORD2R  2       0       0.0     0.0     0.0     0.0     0.0     1.0     +C2     
                    4-        +C2     1.0     0.0     0.0                                                     
                    5-        CORD2R  3       0       0.0     0.0     0.0     0.0     0.0     1.0     +C3     
                    6-        +C3     1.0     0.0     0.0                                                     
                    7-        CQUAD4  2       1       1       2       11      10                              
                    8-        CQUAD4  3       1       2       3       12      11                              
                    9-        CQUAD4  4       1       3       4       13      12                              
                   10-        CQUAD4  5       1       4       5       14      13                              
                   11-        CQUAD4  6       1       5       6       15      14                              
                   12-        CQUAD4  7       1       6       7       16      15                              
                   13-        CQUAD4  8       1       7       8       17      16                              
                   14-        CQUAD4  9       1       8       9       18      17                              
                   15-        CQUAD4  10      1       10      11      20      19                              
                   16-        CQUAD4  11      1       11      12      21      20                              
                   17-        CQUAD4  12      1       12      13      22      21                              
                   18-        CQUAD4  13      1       13      14      23      22                              
                   19-        CQUAD4  14      1       14      15      24      23                              
                   20-        CQUAD4  15      1       15      16      25      24                              
                   21-        CQUAD4  16      1       16      17      26      25                              
                   22-        CQUAD4  17      1       17      18      27      26                              
                   23-        CQUAD4  18      1       19      20      29      28                              
                   24-        CQUAD4  19      1       20      21      30      29                              
                   25-        CQUAD4  20      1       21      22      31      30                              
                   26-        CQUAD4  21      1       22      23      32      31                              
                   27-        CQUAD4  22      1       23      24      33      32                              
                   28-        CQUAD4  23      1       24      25      34      33                              
                   29-        CQUAD4  24      1       25      26      35      34                              
                   30-        CQUAD4  25      1       26      27      36      35                              
                   31-        CQUAD4  26      1       28      29      38      37                              
                   32-        CQUAD4  27      1       29      30      39      38                              
                   33-        CQUAD4  28      1       30      31      40      39                              
                   34-        CQUAD4  29      1       31      32      41      40                              
                   35-        CQUAD4  30      1       32      33      42      41                              
                   36-        CQUAD4  31      1       33      34      43      42                              
                   37-        CQUAD4  32      1       34      35      44      43                              
                   38-        CQUAD4  33      1       35      36      45      44                              
                   39-        CQUAD4  34      1       37      38      47      46                              
                   40-        CQUAD4  35      1       38      39      48      47                              
                   41-        CQUAD4  36      1       39      40      49      48                              
                   42-        CQUAD4  37      1       40      41      50      49                              
                   43-        CQUAD4  38      1       41      42      51      50                              
                   44-        CQUAD4  39      1       42      43      52      51                              
                   45-        CQUAD4  40      1       43      44      53      52                              
                   46-        CQUAD4  41      1       44      45      54      53                              
                   47-        CQUAD4  42      1       46      47      56      55                              
1     COMPO5 QUAD4 4-NODE SHELL ROOF TEST LAMINATED COMPOSITE SHELL         /    95 SUN SOLARIS NASTRAN    / MAY 17, 95 / PAGE     7
      NASTRAN TEST PROBLEM NO. T01-29-1A                                                                                            

                                                                                                                                    

                                                  S O R T E D   B U L K    D A T A    E C H O                                       
                     CARD                                                                                                           
                     COUNT        ---1--- +++2+++ ---3--- +++4+++ ---5--- +++6+++ ---7--- +++8+++ ---9--- +++10+++                  
                   48-        CQUAD4  43      1       47      48      57      56                              
                   49-        CQUAD4  44      1       48      49      58      57                              
                   50-        CQUAD4  45      1       49      50      59      58                              
                   51-        CQUAD4  46      1       50      51      60      59                              
                   52-        CQUAD4  47      1       51      52      61      60                              
                   53-        CQUAD4  48      1       52      53      62      61                              
                   54-        CQUAD4  49      1       53      54      63      62                              
                   55-        CQUAD4  50      1       55      56      65      64                              
                   56-        CQUAD4  51      1       56      57      66      65                              
                   57-        CQUAD4  52      1       57      58      67      66                              
                   58-        CQUAD4  53      1       58      59      68      67                              
                   59-        CQUAD4  54      1       59      60      69      68                              
                   60-        CQUAD4  55      1       60      61      70      69                              
                   61-        CQUAD4  56      1       61      62      71      70                              
                   62-        CQUAD4  57      1       62      63      72      71                              
                   63-        CQUAD4  58      1       64      65      74      73                              
                   64-        CQUAD4  59      1       65      66      75      74                              
                   65-        CQUAD4  60      1       66      67      76      75                              
                   66-        CQUAD4  61      1       67      68      77      76                              
                   67-        CQUAD4  62      1       68      69      78      77                              
                   68-        CQUAD4  63      1       69      70      79      78                              
                   69-        CQUAD4  64      1       70      71      80      79                              
                   70-        CQUAD4  65      1       71      72      81      80                              
                   71-        CRIGD1  1       81      5001                                                    
                   72-        GRID    1       1       25.000  0.000   0.000   1                               
                   73-        GRID    2       1       25.000  5.000   0.000   1                               
                   74-        GRID    3       1       25.000  10.000  0.000   1                               
                   75-        GRID    4       1       25.000  15.000  0.000   1                               
                   76-        GRID    5       1       25.000  20.000  0.000   1                               
                   77-        GRID    6       1       25.000  25.000  0.000   1                               
                   78-        GRID    7       1       25.000  30.000  0.000   1                               
                   79-        GRID    8       1       25.000  35.000  0.000   1                               
                   80-        GRID    9       1       25.000  40.000  0.000   1                               
                   81-        GRID    10      1       25.000  0.000   3.125   1                               
                   82-        GRID    11      1       25.000  5.000   3.125   1                               
                   83-        GRID    12      1       25.000  10.000  3.125   1                               
                   84-        GRID    13      1       25.000  15.000  3.125   1                               
                   85-        GRID    14      1       25.000  20.000  3.125   1                               
                   86-        GRID    15      1       25.000  25.000  3.125   1                               
                   87-        GRID    16      1       25.000  30.000  3.125   1                               
                   88-        GRID    17      1       25.000  35.000  3.125   1                               
                   89-        GRID    18      1       25.000  40.000  3.125   1                               
                   90-        GRID    19      1       25.000  0.000   6.250   1                               
                   91-        GRID    20      1       25.000  5.000   6.250   1                               
                   92-        GRID    21      1       25.000  10.000  6.250   1                               
                   93-        GRID    22      1       25.000  15.000  6.250   1                               
                   94-        GRID    23      1       25.000  20.000  6.250   1                               
1     COMPO5 QUAD4 4-NODE SHELL ROOF TEST LAMINATED COMPOSITE SHELL         /    95 SUN SOLARIS NASTRAN    / MAY 17, 95 / PAGE     8
      NASTRAN TEST PROBLEM NO. T01-29-1A                                                                                            

                                                                                                                                    

                                                  S O R T E D   B U L K    D A T A    E C H O                                       
                     CARD                                                                                                           
                     COUNT        ---1--- +++2+++ ---3--- +++4+++ ---5--- +++6+++ ---7--- +++8+++ ---9--- +++10+++                  
                   95-        GRID    24      1       25.000  25.000  6.250   1                               
                   96-        GRID    25      1       25.000  30.000  6.250   1                               
                   97-        GRID    26      1       25.000  35.000  6.250   1                               
                   98-        GRID    27      1       25.000  40.000  6.250   1                               
                   99-        GRID    28      1       25.000  0.000   9.375   1                               
                  100-        GRID    29      1       25.000  5.000   9.375   1                               
                  101-        GRID    30      1       25.000  10.000  9.375   1                               
                  102-        GRID    31      1       25.000  15.000  9.375   1                               
                  103-        GRID    32      1       25.000  20.000  9.375   1                               
                  104-        GRID    33      1       25.000  25.000  9.375   1                               
                  105-        GRID    34      1       25.000  30.000  9.375   1                               
                  106-        GRID    35      1       25.000  35.000  9.375   1                               
                  107-        GRID    36      1       25.000  40.000  9.375   1                               
                  108-        GRID    37      1       25.000  0.000   12.500  1                               
                  109-        GRID    38      1       25.000  5.000   12.500  1                               
                  110-        GRID    39      1       25.000  10.000  12.500  1                               
                  111-        GRID    40      1       25.000  15.000  12.500  1                               
                  112-        GRID    41      1       25.000  20.000  12.500  1                               
                  113-        GRID    42      1       25.000  25.000  12.500  1                               
                  114-        GRID    43      1       25.000  30.000  12.500  1                               
                  115-        GRID    44      1       25.000  35.000  12.500  1                               
                  116-        GRID    45      1       25.000  40.000  12.500  1                               
                  117-        GRID    46      1       25.000  0.000   15.625  1                               
                  118-        GRID    47      1       25.000  5.000   15.625  1                               
                  119-        GRID    48      1       25.000  10.000  15.625  1                               
                  120-        GRID    49      1       25.000  15.000  15.625  1                               
                  121-        GRID    50      1       25.000  20.000  15.625  1                               
                  122-        GRID    51      1       25.000  25.000  15.625  1                               
                  123-        GRID    52      1       25.000  30.000  15.625  1                               
                  124-        GRID    53      1       25.000  35.000  15.625  1                               
                  125-        GRID    54      1       25.000  40.000  15.625  1                               
                  126-        GRID    55      1       25.000  0.000   18.750  1                               
                  127-        GRID    56      1       25.000  5.000   18.750  1                               
                  128-        GRID    57      1       25.000  10.000  18.750  1                               
                  129-        GRID    58      1       25.000  15.000  18.750  1                               
                  130-        GRID    59      1       25.000  20.000  18.750  1                               
                  131-        GRID    60      1       25.000  25.000  18.750  1                               
                  132-        GRID    61      1       25.000  30.000  18.750  1                               
                  133-        GRID    62      1       25.000  35.000  18.750  1                               
                  134-        GRID    63      1       25.000  40.000  18.750  1                               
                  135-        GRID    64      1       25.000  0.000   21.875  1                               
                  136-        GRID    65      1       25.000  5.000   21.875  1                               
                  137-        GRID    66      1       25.000  10.000  21.875  1                               
                  138-        GRID    67      1       25.000  15.000  21.875  1                               
                  139-        GRID    68      1       25.000  20.000  21.875  1                               
                  140-        GRID    69      1       25.000  25.000  21.875  1                               
                  141-        GRID    70      1       25.000  30.000  21.875  1                               
1     COMPO5 QUAD4 4-NODE SHELL ROOF TEST LAMINATED COMPOSITE SHELL         /    95 SUN SOLARIS NASTRAN    / MAY 17, 95 / PAGE     9
      NASTRAN TEST PROBLEM NO. T01-29-1A                                                                                            

                                                                                                                                    

                                                  S O R T E D   B U L K    D A T A    E C H O                                       
                     CARD                                                                                                           
                     COUNT        ---1--- +++2+++ ---3--- +++4+++ ---5--- +++6+++ ---7--- +++8+++ ---9--- +++10+++                  
                  142-        GRID    71      1       25.000  35.000  21.875  1                               
                  143-        GRID    72      1       25.000  40.000  21.875  1                               
                  144-        GRID    73      1       25.000  0.000   25.000  1                               
                  145-        GRID    74      1       25.000  5.000   25.000  1                               
                  146-        GRID    75      1       25.000  10.000  25.000  1                               
                  147-        GRID    76      1       25.000  15.000  25.000  1                               
                  148-        GRID    77      1       25.000  20.000  25.000  1                               
                  149-        GRID    78      1       25.000  25.000  25.000  1                               
                  150-        GRID    79      1       25.000  30.000  25.000  1                               
                  151-        GRID    80      1       25.000  35.000  25.000  1                               
                  152-        GRID    81      1       25.000  40.000  25.000  1                               
                  153-        GRID    5001    1       25.0    40.0    25.0    3                               
                  154-        MAT8    1       20.0 E+70.5 E+070.25    0.25 E+70.25 E+70.25 E+7                
                  155-        PARAM   AUTOSPC 1                                                               
                  156-        PCOMP   1                                                               +PC1    
                  157-        +PC1    1       .03125  45.0    YES                     -45.0   YES     +PC2    
                  158-        +PC2    1       .03125  15.0    YES                     -15.0   YES     +PC3    
                  159-        +PC3    1       .03125  -15.0   YES                     15.0    YES     +PC4    
                  160-        +PC4    1       .03125  -45.0   YES                     45.0    YES             
                  161-        PLOAD4  1       2       90.0                            THRU    65      +PL1    
                  162-        +PL1    2       0.0     0.0     -1.0                                            
                  163-        SPC1    1       12      1       2       3       4       5       6       +SP10001
                  164-        +SP100017       8       9                                                       
                  165-        SPC1    1       26      1       10      19      28      37      46      +SP10005
                  166-        +SP1000555      64      73                                                      
                  167-        SPC1    1       35      73      74      75      76      77      78      +SP10003
                  168-        +SP1000379      80      81                                                      
                              ENDDATA
1     COMPO5 QUAD4 4-NODE SHELL ROOF TEST LAMINATED COMPOSITE SHELL         /    95 SUN SOLARIS NASTRAN    / MAY 17, 95 / PAGE    10
      NASTRAN TEST PROBLEM NO. T01-29-1A                                                                                            
0                                                                                                                                   
0*** USER INFORMATION MESSAGES FROM RESEQUENCING PROCESSOR - BANDIT     (CRI= 1,  MTH= 3,  MPC= 0,  DEP=-1,  PCH=-1)

                               BEFORE RESEQUENCING - - -
                                        BANDWIDTH           11
                                        PROFILE            801
                                        MAX WAVEFRONT       11
                                        AVG WAVEFRONT    9.889
                                        RMS WAVEFRONT   10.155
                                        RMS BANDWIDTH   10.290

                               AFTER RESEQUENCING BY GIBBS-POOLE-STOCKMEYER (GPS) ALGORITHM - - -
                                        BANDWIDTH           16
                                        PROFILE            817
                                        MAX WAVEFRONT       14
                                        AVG WAVEFRONT   10.086
                                        RMS WAVEFRONT   10.452
                                        RMS BANDWIDTH   10.925


                                                     *** BANDIT SUMMARY ***

                                                                        BEFORE     AFTER
                                        BANDWIDTH (B)                       11        11
                                        PROFILE (P)                        801       801
                                        MAXIMUM WAVEFRONT (C-MAX)           11        11
                                        AVERAGE WAVEFRONT (C-AVG)        9.889     9.889
                                        RMS WAVEFRONT (C-RMS)           10.155    10.155
                                        RMS BANDWITCH (B-RMS)           10.290    10.290
                                        NUMBER OF GRID POINTS (N)                     82
                                        NUMBER OF ELEMENTS (NON-RIGID)                64
                                        NUMBER OF RIGID ELEMENTS PROCESSED*            0
                                        NUMBER OF MPC  EQUATIONS PROCESSED*            0
                                        NUMBER OF COMPONENTS                           1
                                        MAXIMUM NODAL DEGREE                           8
                                        MINIMUM NODAL DEGREE                           3
                                        NUMBER OF UNIQUE EDGES                       272
                                        MATRIX DENSITY, PERCENT                    9.526
                                        NUMBER OF POINTS OF ZERO DEGREE                0
                                        BANDIT OPEN CORE                         1998969
                                        CRITERION*                         RMS WAVEFRONT
                                        METHOD USED*                                 GPS

                               (* THESE DEFAULT OPTIONS CAN BE OVERRIDDEN BY THE NASTRAN CARD)


                               BANDIT FINDS GRID POINT RE-SEQUENCING NOT NECESSARY
0         **NO ERRORS FOUND - EXECUTE NASTRAN PROGRAM**


         THE INPUT PCOMP, PCOMP1 OR PCOMP2 BULK DATA ENTRIES HAVE BEEN REPLACED BY THE FOLLOWING PSHELL AND MAT2 ENTRIES.


 PSHELL             1   100000001  2.5000E-01   200000001  1.0000E+00   300000001  1.0000E+00  0.0000E+00
          -1.2500E-01  1.2500E-01   400000001         0.0         0.0  0.0000E+00

 MAT2       100000001  1.1482E+08  3.1380E+07  0.0000E+00  3.0248E+07  0.0000E+00  3.2628E+07  0.0000E+00
                  0.0         0.0         0.0         0.0         0.0         0.0         0.0         0.0

 MAT2       200000001  6.9547E+07  4.4937E+07  1.7978E+07  4.8404E+07  1.4064E+07  4.6185E+07  0.0000E+00
                  0.0         0.0         0.0         0.0         0.0         0.0         0.0         0.0

 MAT2       300000001  1.8727E+06  0.0000E+00  0.0000E+00  2.1638E+06  0.0000E+00  0.0000E+00  0.0000E+00
                  0.0         0.0         0.0         0.0         0.0         0.0         0.0         0.0

 MAT2       400000001 -9.3132E-10  0.0000E+00  0.0000E+00 -4.6566E-10  0.0000E+00 -4.6566E-10  0.0000E+00
                  0.0         0.0         0.0         0.0         0.0         0.0         0.0         0.0
0*** USER WARNING MESSAGE 2015, EITHER NO ELEMENTS CONNECTED TO EXTERNAL GRID POINT     5001
     OR IT IS CONNECTED TO A RIGID ELEMENT OR A GENERAL ELEMENT.
0*** USER INFORMATION MESSAGE 238, TURN DIAG 38 ON FOR ADDITIONAL ELEMENT PROCESSING INFORMATION

0*** USER INFORMATION MESSAGE 3113,
     EMG MODULE PROCESSING DOUBLE PRECISION QUAD4    ELEMENTS (ELEMENT TYPE  64) STARTING WITH ID        2
0*** USER INFORMATION MESSAGE 3113, RIGID ELEMENTS ARE BEING PROCESSED IN GP4

0*** USER INFORMATION MESSAGE 2435, AT USER'S REQUEST, ALL POTENTIAL SINGULARITIES HAVE BEEN REMOVED BY THE
     APPLICATION OF SINGLE POINT CONSTRAINTS.  REFER TO PRINTOUT OF AUTOMATICALLY GENERATED SPC1 CARDS FOR DETAILS.
1     COMPO5 QUAD4 4-NODE SHELL ROOF TEST LAMINATED COMPOSITE SHELL         /    95 SUN SOLARIS NASTRAN    / MAY 17, 95 / PAGE    11
      NASTRAN TEST PROBLEM NO. T01-29-1A                                                                                            
0                                                                                                                                   


                                A U T O M A T I C A L L Y   G E N E R A T E D   S P C 1   C A R D S
                CARD 
                COUNT        ---1--- +++2+++ ---3--- +++4+++ ---5--- +++6+++ ---7--- +++8+++ ---9--- +++10+++

                   1-        SPC1           1       4       1       9      10      18      19      27
                   2-        SPC1           1       4      28      36      37      45      46      54
                   3-        SPC1           1       4      55      63      64      72
0*** USER INFORMATION MESSAGE 3035
     FOR SUBCASE NUMBER     1, EPSILON SUB E =  -1.8571016E-13
1     COMPO5 QUAD4 4-NODE SHELL ROOF TEST LAMINATED COMPOSITE SHELL         /    95 SUN SOLARIS NASTRAN    / MAY 17, 95 / PAGE    12
      NASTRAN TEST PROBLEM NO. T01-29-1A                                                                                            
0                                                                                                                                   
 
                                             D I S P L A C E M E N T   V E C T O R
 
      POINT ID.   TYPE          T1             T2             T3             R1             R2             R3
             1      G      0.0            0.0            2.899564E-02   0.0            8.625546E-03   0.0                           
             2      G      0.0            0.0            3.017557E-02   5.725482E-02   1.896960E-03   1.115188E-03                  
             3      G      0.0            0.0            3.269306E-02   1.056870E-01  -1.404650E-02   1.548842E-03                  
             4      G      0.0            0.0            3.377349E-02   1.371243E-01  -3.737132E-02   2.159184E-03                  
             5      G      0.0            0.0            2.929746E-02   1.592472E-01  -6.642547E-02   2.454772E-03                  
             6      G      0.0            0.0            1.394483E-02   1.674581E-01  -9.953078E-02   2.853242E-03                  
             7      G      0.0            0.0           -1.857785E-02   1.628319E-01  -1.345009E-01   2.620562E-03                  
             8      G      0.0            0.0           -7.529143E-02   1.332506E-01  -1.684601E-01   3.031616E-03                  
             9      G      0.0            0.0           -1.639529E-01   0.0           -1.942351E-01   1.629148E-03                  
            10      G      3.229542E-02   0.0            2.892486E-02   0.0            7.964384E-03   0.0                           
            11      G      1.497283E-02  -2.220311E-03   3.001600E-02   6.858427E-02   4.942628E-03   1.550408E-02                  
            12      G     -3.198040E-02  -1.626468E-03   3.233238E-02   1.041797E-01  -8.778524E-03   2.681453E-02                  
            13      G     -1.015888E-01   4.059293E-03   3.323820E-02   1.359712E-01  -2.971412E-02   3.623423E-02                  
            14      G     -1.893344E-01   1.660417E-02   2.868276E-02   1.566852E-01  -5.640581E-02   4.380335E-02                  
            15      G     -2.897798E-01   3.731973E-02   1.348193E-02   1.657657E-01  -8.696624E-02   4.882053E-02                  
            16      G     -3.959515E-01   6.693327E-02  -1.841717E-02   1.586989E-01  -1.191799E-01   5.080279E-02                  
            17      G     -4.998755E-01   1.054282E-01  -7.360949E-02   1.478272E-01  -1.509882E-01   4.933311E-02                  
            18      G     -5.936927E-01   1.518261E-01  -1.586922E-01   0.0           -1.751578E-01   4.535493E-02                  
            19      G      6.090258E-02   0.0            2.821701E-02   0.0            5.622067E-03   0.0                           
            20      G      2.951520E-02  -3.868122E-03   2.907328E-02   7.248543E-02   2.026448E-03   2.846012E-02                  
            21      G     -5.812308E-02  -2.460957E-03   3.087526E-02   1.174794E-01  -9.886149E-03   5.161848E-02                  
            22      G     -1.911845E-01   8.700500E-03   3.125524E-02   1.469402E-01  -2.897359E-02   7.051452E-02                  
            23      G     -3.592701E-01   3.309438E-02   2.650590E-02   1.610630E-01  -5.302827E-02   8.498292E-02                  
            24      G     -5.505790E-01   7.314442E-02   1.189345E-02   1.589259E-01  -7.995253E-02   9.418880E-02                  
            25      G     -7.514147E-01   1.300325E-01  -1.796114E-02   1.465427E-01  -1.078509E-01   9.748510E-02                  
            26      G     -9.478584E-01   2.035301E-01  -6.864892E-02   1.249873E-01  -1.353272E-01   9.554208E-02                  
            27      G     -1.130176E+00   2.921465E-01  -1.455881E-01   0.0           -1.577956E-01   9.144332E-02                  
            28      G      7.992071E-02   0.0            2.631155E-02   0.0            7.379559E-04   0.0                           
            29      G      3.692570E-02  -4.838938E-03   2.691968E-02   8.530802E-02   9.856989E-04   3.919034E-02                  
            30      G     -8.604135E-02  -2.335971E-03   2.804812E-02   9.957778E-02  -9.504352E-03   7.276747E-02                  
            31      G     -2.746689E-01   1.389926E-02   2.775921E-02   1.138240E-01  -2.540007E-02   9.991711E-02                  
            32      G     -5.129053E-01   4.884833E-02   2.292241E-02   1.194014E-01  -4.562375E-02   1.200528E-01                  
            33      G     -7.826692E-01   1.058663E-01   9.551525E-03   1.170826E-01  -6.843191E-02   1.323491E-01                  
            34      G     -1.064788E+00   1.865032E-01  -1.683461E-02   1.104471E-01  -9.243312E-02   1.369275E-01                  
            35      G     -1.342523E+00   2.905575E-01  -6.093396E-02   1.134538E-01  -1.173138E-01   1.359932E-01                  
            36      G     -1.606568E+00   4.165486E-01  -1.276789E-01   0.0           -1.374066E-01   1.340813E-01                  
            37      G      9.111481E-02   0.0            2.320636E-02   0.0            8.203459E-04   0.0                           
            38      G      3.812192E-02  -5.167392E-03   2.352739E-02   6.647225E-02  -1.824821E-03   4.783016E-02                  
            39      G     -1.126332E-01  -1.367456E-03   2.404442E-02   1.031336E-01  -8.646183E-03   8.961146E-02                  
            40      G     -3.456871E-01   1.930683E-02   2.322238E-02   1.207159E-01  -2.074476E-02   1.239404E-01                  
            41      G     -6.409738E-01   6.308063E-02   1.864158E-02   1.257583E-01  -3.653977E-02   1.490356E-01                  
            42      G     -9.754177E-01   1.341401E-01   7.174413E-03   1.204130E-01  -5.481802E-02   1.643408E-01                  
            43      G     -1.325969E+00   2.344973E-01  -1.477512E-02   1.095870E-01  -7.458538E-02   1.707507E-01                  
            44      G     -1.673849E+00   3.641651E-01  -5.111113E-02   9.127031E-02  -9.483767E-02   1.713979E-01                  
            45      G     -2.010344E+00   5.217552E-01  -1.058831E-01   0.0           -1.127465E-01   1.722045E-01                  
            46      G      9.356097E-02   0.0            1.886566E-02   0.0           -5.991992E-03   0.0                           
            47      G      3.530085E-02  -4.975086E-03   1.900014E-02   9.266894E-02  -5.291671E-04   5.354195E-02                  
1     COMPO5 QUAD4 4-NODE SHELL ROOF TEST LAMINATED COMPOSITE SHELL         /    95 SUN SOLARIS NASTRAN    / MAY 17, 95 / PAGE    13
      NASTRAN TEST PROBLEM NO. T01-29-1A                                                                                            
0                                                                                                                                   
 
                                             D I S P L A C E M E N T   V E C T O R
 
      POINT ID.   TYPE          T1             T2             T3             R1             R2             R3
            48      G     -1.353854E-01   1.504413E-04   1.900132E-02   7.637139E-02  -6.603403E-03   1.020970E-01                  
            49      G     -4.015175E-01   2.442709E-02   1.789914E-02   7.315119E-02  -1.532609E-02   1.418891E-01                  
            50      G     -7.401790E-01   7.506831E-02   1.399365E-02   6.909098E-02  -2.698910E-02   1.713187E-01                  
            51      G     -1.125102E+00   1.570122E-01   4.962201E-03   6.430767E-02  -4.082906E-02   1.895055E-01                  
            52      G     -1.530234E+00   2.727434E-01  -1.193661E-02   6.199219E-02  -5.605701E-02   1.978610E-01                  
            53      G     -1.935240E+00   4.225408E-01  -3.964049E-02   7.547092E-02  -7.276974E-02   2.003550E-01                  
            54      G     -2.330566E+00   6.051728E-01  -8.128059E-02   0.0           -8.526150E-02   2.029887E-01                  
            55      G      9.444383E-02   0.0            1.341944E-02   0.0            1.611832E-03   0.0                           
            56      G      3.002082E-02  -4.455318E-03   1.334750E-02   4.320000E-02  -3.952390E-03   5.764867E-02                  
            57      G     -1.534824E-01   1.867822E-03   1.309156E-02   8.697563E-02  -5.401087E-03   1.097168E-01                  
            58      G     -4.412707E-01   2.873573E-02   1.208535E-02   9.986024E-02  -1.032157E-02   1.542405E-01                  
            59      G     -8.102633E-01   8.416884E-02   9.236316E-03   1.003214E-01  -1.774203E-02   1.872265E-01                  
            60      G     -1.231426E+00   1.737581E-01   3.030256E-03   8.976886E-02  -2.692107E-02   2.078252E-01                  
            61      G     -1.676202E+00   3.004031E-01  -8.358393E-03   7.271206E-02  -3.712994E-02   2.177250E-01                  
            62      G     -2.122948E+00   4.646077E-01  -2.698542E-02   4.590473E-02  -4.736068E-02   2.216620E-01                  
            63      G     -2.563775E+00   6.654020E-01  -5.490253E-02   0.0           -5.911697E-02   2.271640E-01                  
            64      G      8.182470E-02   0.0            7.020907E-03   0.0           -1.740015E-02   0.0                           
            65      G      2.139186E-02  -3.751520E-03   6.966338E-03   9.953668E-02  -7.478923E-04   5.675038E-02                  
            66      G     -1.645208E-01   3.365430E-03   6.725371E-03   3.839648E-02  -1.735847E-03   1.135830E-01                  
            67      G     -4.634902E-01   3.170485E-02   6.093581E-03   1.807599E-02  -3.660017E-03   1.611325E-01                  
            68      G     -8.498142E-01   8.986308E-02   4.576935E-03   1.794365E-03  -7.167116E-03   1.966604E-01                  
            69      G     -1.292948E+00   1.838779E-01   1.416779E-03  -5.290289E-03  -1.205355E-02   2.191020E-01                  
            70      G     -1.762964E+00   3.169888E-01  -4.297093E-03  -7.718697E-04  -1.819778E-02   2.304700E-01                  
            71      G     -2.236855E+00   4.899319E-01  -1.357198E-02   2.774042E-02  -2.594543E-02   2.353228E-01                  
            72      G     -2.704947E+00   7.017896E-01  -2.771374E-02   0.0           -2.775393E-02   2.415532E-01                  
            73      G      8.774255E-02   0.0            0.0           -4.773707E-01   0.0            0.0                           
            74      G      2.208306E-02  -3.579336E-03   0.0           -8.017362E-05   0.0            5.820425E-02                  
            75      G     -1.673827E-01   3.892042E-03   0.0            8.918486E-02   0.0            1.134582E-01                  
            76      G     -4.695131E-01   3.275507E-02   0.0            1.009819E-01   0.0            1.625737E-01                  
            77      G     -8.615965E-01   9.178473E-02   0.0            9.832776E-02   0.0            1.994962E-01                  
            78      G     -1.312415E+00   1.872231E-01   0.0            7.920962E-02   0.0            2.229738E-01                  
            79      G     -1.791753E+00   3.224472E-01   0.0            5.202624E-02   0.0            2.354358E-01                  
            80      G     -2.278099E+00   4.983991E-01   0.0            5.247600E-03   0.0            2.423907E-01                  
            81      G     -2.761726E+00   7.144707E-01   0.0           -1.846150E-01   0.0            2.487458E-01                  
          5001      G      0.0           -1.227887E+00  -2.574858E+00  -2.487458E-01  -1.186682E-01  -1.414233E-01                  




                                        * * * END OF JOB * * *
1
 JOB TITLE =  COMPO5 QUAD4 4-NODE SHELL ROOF TEST LAMINATED COMPOSITE SHELL      
 DATE:  5/17/95
 END TIME: 16:40: 0
 TOTAL WALL CLOCK TIME      3 SEC.
 
