





                                  ****
                                *      *
                               *        *
                               *  N A S T R A N
                               *        *
                                *      *
                                  ****


                             SUN COMPUTER SYSTEMS    
                                SOLARIS VERSION

                          SYSTEM RELEASE -  1995 ED.

                                DISTRIBUTED BY

         COMPUTER SOFTWARE MANAGEMENT AND INFORMATION CENTER (COSMIC)
                 UNIVERSITY OF GEORGIA, ATHENS, GEORGIA 30602
                 PHONE: (706)542-3265      FAX: (706)542-4807
1                                                                           /    95 SUN SOLARIS NASTRAN    / MAY 17, 95 / PAGE     2
                                                                                                                                    
0                                                                                                                                   
                                                                                                         
                                                                                                         
                         INSTALLATION CENTER USER INFORMATION GIVEN IN THIS SECTION                      
                                                                                                         
                                     *********************************************                       
                                     *                                           *                       
                                     *  PLEASE READ THE COMMENT IN DEMO PROBLEM  *                       
                                     *  D01002A ABOUT SYSTEM TIMING CONSTANTS    *                       
                                     *                                           *                       
                                     *********************************************                       
                                                                                                         
                         ===X=    TOP OF PAGE REQUEST IF 'X' IS REPLACED BY '='                          
                                                                                                         
1                                                                           /    95 SUN SOLARIS NASTRAN    / MAY 17, 95 / PAGE     3
                                                                                                                                    
0                                                                                                                                   
0*** USER INFORMATION MESSAGE 225, GINO TIME CONSTANTS ARE BEING COMPUTED
     (SEE NASINFO FILE FOR ELIMINATION OF THESE COMPUTATIONS)
1                                                                           /    95 SUN SOLARIS NASTRAN    / MAY 17, 95 / PAGE     4
                                                                                                                                    
0        N A S T R A N    E X E C U T I V E    C O N T R O L    D E C K    E C H O                                                  
0                                                                                                                                   
                                                                                                                                    
                                                                                                                                    
     ID    T01321A,NASTRAN                                                           
     SOL   1,0                                                                       
     DIAG  40                                                                        
     APP   DISP                                                                      
     TIME  10                                                                        
     CEND                                                                            


0*** USER INFORMATION MESSAGE, TURN DIAG 48 ON FOR NASTRAN RELEASE NEWS, DIAG DEFINITION, NEW DMAP
         MODULES AND NEW BULKDATA CARDS INFORMATION
1     CTRIA3 SIMPLE SUPPORTED FLAT PLATE WITH PLOAD4 UNIFORM LOAD           /    95 SUN SOLARIS NASTRAN    / MAY 17, 95 / PAGE     5
      NASTRAN TEST PROBLEM NO. T01-32-1A                                                                                            
0     MESH 8X8, ASPECT RATIO 1.0 SYMM CROSS-PLY [0/90/0]                                                                            
0                                        C A S E    C O N T R O L   D E C K   E C H O                                               
                 CARD                                                                                                               
                 COUNT                                                                                                              
                  1      TITLE    = CTRIA3 SIMPLE SUPPORTED FLAT PLATE WITH PLOAD4 UNIFORM LOAD          
                  2      SUBTITLE = NASTRAN TEST PROBLEM NO. T01-32-1A                                   
                  3      LABEL    = MESH 8X8, ASPECT RATIO 1.0 SYMM CROSS-PLY [0/90/0]                   
                  4      $                                                                               
                  5      $    MODEL: A QUARTER MODEL OF A SIMPLY SUPPORTED FLAT PLATE                    
                  6      $           OF A SYMMETRIC CROSS-PLY CONFIGURATION [0/90/0].                    
                  7      $           UNDER A UNIFORM PRESSURE LOADING.                                   
                  8      $                                                                               
                  9      $       * * COMPARISON OF T3 DEFLECTION AT GRID 25 * *                          
                 10      $                                                                               
                 11      $         COSMIC/NASTRAN          MSC/NASTRAN                                   
                 12      $        CTRIA3      CQUAD4          CTRIA3        THEORETICAL                  
                 13      $      --------------------------------------------------------                 
                 14      $      -1.685E-3*  -1.855E-3       -1.622E-3        -1.836E-3                   
                 15      $               * PLOAD CARDS WERE USED, NOT PLOAD4                             
                 16      $                                                                               
                 17      $                                                                               
                 18      $   REFERENCE: JONES,R.M. , MECHANICS OF COMPOSITE MATERIALS.                   
                 19      $              M GRAW-HILL BOOK COMPANY.  (PAGE 248-250)                        
                 20      $                                                                               
                 21      $                                                                               
                 22      SET 1 = 2,7,12,17                                                               
                 23      DISP  = ALL                                                                     
                 24      OLOAD = ALL                                                                     
                 25      FORCE = 1                                                                       
                 26      SPC   = 1                                                                       
                 27      LOAD  = 1                                                                       
                 28      STRESS(LAYER) = 1                                                               
                 29      BEGIN BULK                                                                      


                        (NO. OF UNSORTED BULK DATA CARDS READ =    69, INCLUDING   0 COMMENT CARDS)
0*** USER INFORMATION MESSAGE 207, BULK DATA DECK IS NOT SORTED. NASTRAN WILL RE-ORDER THE INPUT DECK.
1     CTRIA3 SIMPLE SUPPORTED FLAT PLATE WITH PLOAD4 UNIFORM LOAD           /    95 SUN SOLARIS NASTRAN    / MAY 17, 95 / PAGE     6
      NASTRAN TEST PROBLEM NO. T01-32-1A                                                                                            
0     MESH 8X8, ASPECT RATIO 1.0 SYMM CROSS-PLY [0/90/0]                                                                            
0                                                 S O R T E D   B U L K    D A T A    E C H O                                       
                     CARD                                                                                                           
                     COUNT        ---1--- +++2+++ ---3--- +++4+++ ---5--- +++6+++ ---7--- +++8+++ ---9--- +++10+++                  
                    1-        CTRIA3  1       1       1       6       2                                       
                    2-        CTRIA3  2       1       2       6       7       45.0                            
                    3-        CTRIA3  3       1       6       11      7                                       
                    4-        CTRIA3  4       1       7       11      12      45.0                            
                    5-        CTRIA3  5       1       11      16      12                                      
                    6-        CTRIA3  6       1       12      16      17      45.0                            
                    7-        CTRIA3  7       1       16      21      17                                      
                    8-        CTRIA3  8       1       17      21      22      45.0                            
                    9-        CTRIA3  9       1       2       7       3                                       
                   10-        CTRIA3  10      1       3       7       8       45.0                            
                   11-        CTRIA3  11      1       7       12      8                                       
                   12-        CTRIA3  12      1       8       12      13      45.0                            
                   13-        CTRIA3  13      1       12      17      13                                      
                   14-        CTRIA3  14      1       13      17      18      45.0                            
                   15-        CTRIA3  15      1       17      22      18                                      
                   16-        CTRIA3  16      1       18      22      23      45.0                            
                   17-        CTRIA3  17      1       3       8       4                                       
                   18-        CTRIA3  18      1       4       8       9       45.0                            
                   19-        CTRIA3  19      1       8       13      9                                       
                   20-        CTRIA3  20      1       9       13      14      45.0                            
                   21-        CTRIA3  21      1       13      18      14                                      
                   22-        CTRIA3  22      1       14      18      19      45.0                            
                   23-        CTRIA3  23      1       18      23      19                                      
                   24-        CTRIA3  24      1       19      23      24      45.0                            
                   25-        CTRIA3  25      1       4       9       5                                       
                   26-        CTRIA3  26      1       5       9       10      45.0                            
                   27-        CTRIA3  27      1       9       14      10                                      
                   28-        CTRIA3  28      1       10      14      15      45.0                            
                   29-        CTRIA3  29      1       14      19      15                                      
                   30-        CTRIA3  30      1       15      19      20      45.0                            
                   31-        CTRIA3  31      1       19      24      20                                      
                   32-        CTRIA3  32      1       20      24      25      45.0                            
                   33-        GRID    1               0.000   0.000   0.000                                   
                   34-        GRID    2               0.000   0.250   0.000                                   
                   35-        GRID    3               0.000   0.500   0.000                                   
                   36-        GRID    4               0.000   0.750   0.000                                   
                   37-        GRID    5               0.000   1.000   0.000                                   
                   38-        GRID    6               0.250   0.000   0.000                                   
                   39-        GRID    7               0.250   0.250   0.000                                   
                   40-        GRID    8               0.250   0.500   0.000                                   
                   41-        GRID    9               0.250   0.750   0.000                                   
                   42-        GRID    10              0.250   1.000   0.000                                   
                   43-        GRID    11              0.500   0.000   0.000                                   
                   44-        GRID    12              0.500   0.250   0.000                                   
                   45-        GRID    13              0.500   0.500   0.000                                   
                   46-        GRID    14              0.500   0.750   0.000                                   
                   47-        GRID    15              0.500   1.000   0.000                                   
1     CTRIA3 SIMPLE SUPPORTED FLAT PLATE WITH PLOAD4 UNIFORM LOAD           /    95 SUN SOLARIS NASTRAN    / MAY 17, 95 / PAGE     7
      NASTRAN TEST PROBLEM NO. T01-32-1A                                                                                            

      MESH 8X8, ASPECT RATIO 1.0 SYMM CROSS-PLY [0/90/0]                                                                            

                                                  S O R T E D   B U L K    D A T A    E C H O                                       
                     CARD                                                                                                           
                     COUNT        ---1--- +++2+++ ---3--- +++4+++ ---5--- +++6+++ ---7--- +++8+++ ---9--- +++10+++                  
                   48-        GRID    16              0.750   0.000   0.000                                   
                   49-        GRID    17              0.750   0.250   0.000                                   
                   50-        GRID    18              0.750   0.500   0.000                                   
                   51-        GRID    19              0.750   0.750   0.000                                   
                   52-        GRID    20              0.750   1.000   0.000                                   
                   53-        GRID    21              1.000   0.000   0.000                                   
                   54-        GRID    22              1.000   0.250   0.000                                   
                   55-        GRID    23              1.000   0.500   0.000                                   
                   56-        GRID    24              1.000   0.750   0.000                                   
                   57-        GRID    25              1.000   1.000   0.000                                   
                   58-        MAT8    1       20.0+06 .50+6   .25     .250+6                                  
                   59-        PCOMP   1       -.001                                                   +PC1    
                   60-        +PC1    1       .000666 0.0     YES     1       .000666 90.0    YES     +PC2    
                   61-        +PC2    1       .000666 0.0     YES                                             
                   62-        PLOAD4  1       1       -1.0-04                         THRU    32              
                   63-        SPC1    1       6       1       THRU    25                                      
                   64-        SPC1    1       15      22      23      24                                      
                   65-        SPC1    1       24      10      15      20                                      
                   66-        SPC1    1       1234    2       3       4       5                               
                   67-        SPC1    1       1235    6       11      16      21                              
                   68-        SPC1    1       1245    25                                                      
                   69-        SPC1    1       12345   1                                                       
                              ENDDATA
1     CTRIA3 SIMPLE SUPPORTED FLAT PLATE WITH PLOAD4 UNIFORM LOAD           /    95 SUN SOLARIS NASTRAN    / MAY 17, 95 / PAGE     8
      NASTRAN TEST PROBLEM NO. T01-32-1A                                                                                            
0     MESH 8X8, ASPECT RATIO 1.0 SYMM CROSS-PLY [0/90/0]                                                                            
0*** USER INFORMATION MESSAGES FROM RESEQUENCING PROCESSOR - BANDIT     (CRI= 1,  MTH= 3,  MPC= 0,  DEP=-1,  PCH=-1)

                               BEFORE RESEQUENCING - - -
                                        BANDWIDTH            6
                                        PROFILE            129
                                        MAX WAVEFRONT        6
                                        AVG WAVEFRONT    5.160
                                        RMS WAVEFRONT    5.355
                                        RMS BANDWIDTH    5.430

                               AFTER RESEQUENCING BY GIBBS-POOLE-STOCKMEYER (GPS) ALGORITHM - - -
                                        BANDWIDTH            6
                                        PROFILE            115
                                        MAX WAVEFRONT        6
                                        AVG WAVEFRONT    4.600
                                        RMS WAVEFRONT    4.796
                                        RMS BANDWIDTH    4.796


                                                     *** BANDIT SUMMARY ***

                                                                        BEFORE     AFTER
                                        BANDWIDTH (B)                        6         6
                                        PROFILE (P)                        129       115
                                        MAXIMUM WAVEFRONT (C-MAX)            6         6
                                        AVERAGE WAVEFRONT (C-AVG)        5.160     4.600
                                        RMS WAVEFRONT (C-RMS)            5.355     4.796
                                        RMS BANDWITCH (B-RMS)            5.430     4.796
                                        NUMBER OF GRID POINTS (N)                     25
                                        NUMBER OF ELEMENTS (NON-RIGID)                32
                                        NUMBER OF RIGID ELEMENTS PROCESSED*            0
                                        NUMBER OF MPC  EQUATIONS PROCESSED*            0
                                        NUMBER OF COMPONENTS                           1
                                        MAXIMUM NODAL DEGREE                           6
                                        MINIMUM NODAL DEGREE                           2
                                        NUMBER OF UNIQUE EDGES                        56
                                        MATRIX DENSITY, PERCENT                   21.920
                                        NUMBER OF POINTS OF ZERO DEGREE                0
                                        BANDIT OPEN CORE                         1998969
                                        CRITERION*                         RMS WAVEFRONT
                                        METHOD USED*                                 GPS
                                        NO. OF SEQGP CARDS GENERATED                   7

                               (* THESE DEFAULT OPTIONS CAN BE OVERRIDDEN BY THE NASTRAN CARD)
1     CTRIA3 SIMPLE SUPPORTED FLAT PLATE WITH PLOAD4 UNIFORM LOAD           /    95 SUN SOLARIS NASTRAN    / MAY 17, 95 / PAGE     9
      NASTRAN TEST PROBLEM NO. T01-32-1A                                                                                            
0     MESH 8X8, ASPECT RATIO 1.0 SYMM CROSS-PLY [0/90/0]                                                                            


                                   S Y S T E M  G E N E R A T E D  S E Q G P  C A R D S

                         SEQGP          1       1       2       3       3       6       4      10
                         SEQGP          5      15       6       2       7       5       8       9
                         SEQGP          9      14      10      19      11       4      12       8
                         SEQGP         13      13      14      18      15      22      16       7
                         SEQGP         17      12      18      17      19      21      20      24
                         SEQGP         21      11      22      16      23      20      24      23
                         SEQGP         25      25
0         **NO ERRORS FOUND - EXECUTE NASTRAN PROGRAM**


         THE INPUT PCOMP, PCOMP1 OR PCOMP2 BULK DATA ENTRIES HAVE BEEN REPLACED BY THE FOLLOWING PSHELL AND MAT2 ENTRIES.


 PSHELL             1   100000001  1.9980E-03   200000001  1.0000E+00   300000001  1.0000E+00  0.0000E+00
          -9.9900E-04  9.9900E-04   400000001         0.0         0.0  0.0000E+00

 MAT2       100000001  1.3521E+07  1.2520E+05  0.0000E+00  7.0110E+06  0.0000E+00  2.5000E+05  0.0000E+00
                  0.0         0.0         0.0         0.0         0.0         0.0         0.0         0.0

 MAT2       200000001  1.9308E+07  1.2520E+05  0.0000E+00  1.2241E+06  0.0000E+00  2.5000E+05  0.0000E+00
                  0.0         0.0         0.0         0.0         0.0         0.0         0.0         0.0

 MAT2       300000001  0.0000E+00  0.0000E+00  0.0000E+00  0.0000E+00  0.0000E+00  0.0000E+00  0.0000E+00
                  0.0         0.0         0.0         0.0         0.0         0.0         0.0         0.0

 MAT2       400000001  0.0000E+00  0.0000E+00  0.0000E+00  0.0000E+00  0.0000E+00  0.0000E+00  0.0000E+00
                  0.0         0.0         0.0         0.0         0.0         0.0         0.0         0.0
0*** USER INFORMATION MESSAGE 238, TURN DIAG 38 ON FOR ADDITIONAL ELEMENT PROCESSING INFORMATION

0*** USER INFORMATION MESSAGE 3113,
     EMG MODULE PROCESSING DOUBLE PRECISION TRIA3    ELEMENTS (ELEMENT TYPE  83) STARTING WITH ID        1
0*** USER INFORMATION MESSAGE 3035
     FOR SUBCASE NUMBER     1, EPSILON SUB E =   5.0329729E-14
1     CTRIA3 SIMPLE SUPPORTED FLAT PLATE WITH PLOAD4 UNIFORM LOAD           /    95 SUN SOLARIS NASTRAN    / MAY 17, 95 / PAGE    10
      NASTRAN TEST PROBLEM NO. T01-32-1A                                                                                            
0     MESH 8X8, ASPECT RATIO 1.0 SYMM CROSS-PLY [0/90/0]                                                                            
 
                                             D I S P L A C E M E N T   V E C T O R
 
      POINT ID.   TYPE          T1             T2             T3             R1             R2             R3
             1      G      0.0            0.0            0.0            0.0            0.0            0.0                           
             2      G      0.0            0.0            0.0            0.0            1.174108E-03   0.0                           
             3      G      0.0            0.0            0.0            0.0            2.058508E-03   0.0                           
             4      G      0.0            0.0            0.0            0.0            2.531769E-03   0.0                           
             5      G      0.0            0.0            0.0            0.0            2.712162E-03   0.0                           
             6      G      0.0            0.0            0.0           -1.205491E-03   0.0            0.0                           
             7      G      0.0            0.0           -2.845027E-04  -1.039763E-03   1.089696E-03   0.0                           
             8      G      0.0            0.0           -4.949340E-04  -6.172197E-04   1.885620E-03   0.0                           
             9      G      0.0            0.0           -6.108230E-04  -2.823236E-04   2.317570E-03   0.0                           
            10      G      0.0            0.0           -6.506284E-04   0.0            2.433288E-03   0.0                           
            11      G      0.0            0.0            0.0           -2.270027E-03   0.0            0.0                           
            12      G      0.0            0.0           -5.257187E-04  -1.911599E-03   8.229751E-04   0.0                           
            13      G      0.0            0.0           -9.090877E-04  -1.163206E-03   1.418107E-03   0.0                           
            14      G      0.0            0.0           -1.119404E-03  -5.145338E-04   1.740601E-03   0.0                           
            15      G      0.0            0.0           -1.187044E-03   0.0            1.808347E-03   0.0                           
            16      G      0.0            0.0            0.0           -3.017362E-03   0.0            0.0                           
            17      G      0.0            0.0           -6.887648E-04  -2.467892E-03   4.426815E-04   0.0                           
            18      G      0.0            0.0           -1.183425E-03  -1.520135E-03   7.572556E-04   0.0                           
            19      G      0.0            0.0           -1.453424E-03  -6.589617E-04   9.274684E-04   0.0                           
            20      G      0.0            0.0           -1.536301E-03   0.0            9.534608E-04   0.0                           
            21      G      0.0            0.0            0.0           -3.372213E-03   0.0            0.0                           
            22      G      0.0            0.0           -7.507061E-04  -2.642528E-03   0.0            0.0                           
            23      G      0.0            0.0           -1.282222E-03  -1.624640E-03   0.0            0.0                           
            24      G      0.0            0.0           -1.570616E-03  -6.878410E-04   0.0            0.0                           
            25      G      0.0            0.0           -1.656966E-03   0.0            0.0            0.0                           
1     CTRIA3 SIMPLE SUPPORTED FLAT PLATE WITH PLOAD4 UNIFORM LOAD           /    95 SUN SOLARIS NASTRAN    / MAY 17, 95 / PAGE    11
      NASTRAN TEST PROBLEM NO. T01-32-1A                                                                                            
0     MESH 8X8, ASPECT RATIO 1.0 SYMM CROSS-PLY [0/90/0]                                                                            
 
                                                     L O A D   V E C T O R
 
      POINT ID.   TYPE          T1             T2             T3             R1             R2             R3
             1      G      0.0            0.0           -1.041667E-06   0.0            0.0            0.0                           
             2      G      0.0            0.0           -3.125000E-06   0.0            0.0            0.0                           
             3      G      0.0            0.0           -3.125000E-06   0.0            0.0            0.0                           
             4      G      0.0            0.0           -3.125000E-06   0.0            0.0            0.0                           
             5      G      0.0            0.0           -2.083333E-06   0.0            0.0            0.0                           
             6      G      0.0            0.0           -3.125000E-06   0.0            0.0            0.0                           
             7      G      0.0            0.0           -6.250000E-06   0.0            0.0            0.0                           
             8      G      0.0            0.0           -6.250000E-06   0.0            0.0            0.0                           
             9      G      0.0            0.0           -6.250000E-06   0.0            0.0            0.0                           
            10      G      0.0            0.0           -3.125000E-06   0.0            0.0            0.0                           
            11      G      0.0            0.0           -3.125000E-06   0.0            0.0            0.0                           
            12      G      0.0            0.0           -6.250000E-06   0.0            0.0            0.0                           
            13      G      0.0            0.0           -6.250000E-06   0.0            0.0            0.0                           
            14      G      0.0            0.0           -6.250000E-06   0.0            0.0            0.0                           
            15      G      0.0            0.0           -3.125000E-06   0.0            0.0            0.0                           
            16      G      0.0            0.0           -3.125000E-06   0.0            0.0            0.0                           
            17      G      0.0            0.0           -6.250000E-06   0.0            0.0            0.0                           
            18      G      0.0            0.0           -6.250000E-06   0.0            0.0            0.0                           
            19      G      0.0            0.0           -6.250000E-06   0.0            0.0            0.0                           
            20      G      0.0            0.0           -3.125000E-06   0.0            0.0            0.0                           
            21      G      0.0            0.0           -2.083333E-06   0.0            0.0            0.0                           
            22      G      0.0            0.0           -3.125000E-06   0.0            0.0            0.0                           
            23      G      0.0            0.0           -3.125000E-06   0.0            0.0            0.0                           
            24      G      0.0            0.0           -3.125000E-06   0.0            0.0            0.0                           
            25      G      0.0            0.0           -1.041667E-06   0.0            0.0            0.0                           
1     CTRIA3 SIMPLE SUPPORTED FLAT PLATE WITH PLOAD4 UNIFORM LOAD           /    95 SUN SOLARIS NASTRAN    / MAY 17, 95 / PAGE    12
      NASTRAN TEST PROBLEM NO. T01-32-1A                                                                                            
0     MESH 8X8, ASPECT RATIO 1.0 SYMM CROSS-PLY [0/90/0]                                                                            
 
                      F O R C E S   I N   L A Y E R E D   C O M P O S I T E   E L E M E N T S   ( T R I A 3 )

      ELEMENT                  - MEMBRANE  FORCES -                      - BENDING   MOMENTS -           - TRANSVERSE SHEAR FORCES -
        ID                FX            FY            FXY           MX            MY            MXY           VX            VY
0           2         0.00000E+00   0.00000E+00   3.89329E-06   1.06252E-06   1.91043E-06  -1.59166E-06  -2.47440E-05   0.00000E+00
0           7         0.00000E+00   0.00000E+00   1.82895E-07   1.78829E-06  -5.30094E-07   5.00982E-05  -1.00028E-04   0.00000E+00
0          12         0.00000E+00   0.00000E+00   1.41782E-05   1.26613E-05   1.08284E-05  -1.90515E-05   2.08444E-06   0.00000E+00
0          17         0.00000E+00   0.00000E+00   8.87498E-06   5.75467E-08  -7.24808E-07  -6.16088E-05   1.08991E-04   0.00000E+00
1     CTRIA3 SIMPLE SUPPORTED FLAT PLATE WITH PLOAD4 UNIFORM LOAD           /    95 SUN SOLARIS NASTRAN    / MAY 17, 95 / PAGE    13
      NASTRAN TEST PROBLEM NO. T01-32-1A                                                                                            
0     MESH 8X8, ASPECT RATIO 1.0 SYMM CROSS-PLY [0/90/0]                                                                            
 
                    S T R E S S E S   I N   L A Y E R E D   C O M P O S I T E   E L E M E N T S   ( T R I A 3 )
0 ELEMENT   PLY *STRESSES IN FIBER AND MATRIX DIRECTIONS*  *DIRECT FIBER *  *INTER-LAMINAR STRESSES*  * SHEAR BOND  *   *MAXIMUM*
    ID      ID  *  NORMAL-1      NORMAL-2      SHEAR-12 *  *FAILURE INDEX*  *SHEAR-1Z      SHEAR-2Z*  *FAILURE INDEX*   * INDEX *

0       2     1   4.55979E+00   2.49249E-01  -1.41822E+00       0.000      -1.71311E-02   0.00000E+00     0.000    
              2   3.87700E-07   7.33655E-09   6.19754E-08       0.000      -1.71311E-02   0.00000E+00     0.000    
              3  -4.55979E+00  -2.49249E-01   1.41822E+00       0.000      -5.52496E-09   0.00000E+00     0.000    
                                                                                                                          0.000
0       7     1   1.83261E-01   7.33039E-01  -5.31156E-01       0.000      -6.92532E-02   0.00000E+00     0.000    
              2   1.28134E-06   8.00835E-09   2.32112E-08       0.000      -6.92532E-02   0.00000E+00     0.000    
              3  -1.83261E-01  -7.33039E-01   5.31156E-01       0.000      -2.23348E-08   0.00000E+00     0.000    
                                                                                                                          0.000
0      12     1   2.51977E+01   1.15435E+00  -7.59984E-01       0.000       1.44313E-03   0.00000E+00     0.000    
              2   1.75203E-06   3.81630E-08   3.32109E-08       0.000       1.44313E-03   0.00000E+00     0.000    
              3  -2.51977E+01  -1.15435E+00   7.59984E-01       0.000       4.65423E-10   0.00000E+00     0.000    
                                                                                                                          0.000
0      17     1   9.22592E+00   5.76620E-02  -7.26260E-01       0.000       7.54586E-02   0.00000E+00     0.000    
              2   2.51991E-09   1.00792E-08   3.17372E-08       0.000       7.54586E-02   0.00000E+00     0.000    
              3  -9.22592E+00  -5.76620E-02   7.26260E-01       0.000       2.43361E-08   0.00000E+00     0.000    
                                                                                                                          0.000




                                        * * * END OF JOB * * *
1
 JOB TITLE =  CTRIA3 SIMPLE SUPPORTED FLAT PLATE WITH PLOAD4 UNIFORM LOAD        
 DATE:  5/17/95
 END TIME: 16:41:51
 TOTAL WALL CLOCK TIME      2 SEC.
 
