     NASTRAN FILES=(INP1,INP2)                                                       






                                  ****
                                *      *
                               *        *
                               *  N A S T R A N
                               *        *
                                *      *
                                  ****


                             SUN COMPUTER SYSTEMS    
                                SOLARIS VERSION

                          SYSTEM RELEASE -  1995 ED.

                                DISTRIBUTED BY

         COMPUTER SOFTWARE MANAGEMENT AND INFORMATION CENTER (COSMIC)
                 UNIVERSITY OF GEORGIA, ATHENS, GEORGIA 30602
                 PHONE: (706)542-3265      FAX: (706)542-4807
1                                                                           /    95 SUN SOLARIS NASTRAN    / MAY 17, 95 / PAGE     2
                                                                                                                                    
0                                                                                                                                   
                                                                                                         
                                                                                                         
                         INSTALLATION CENTER USER INFORMATION GIVEN IN THIS SECTION                      
                                                                                                         
                                     *********************************************                       
                                     *                                           *                       
                                     *  PLEASE READ THE COMMENT IN DEMO PROBLEM  *                       
                                     *  D01002A ABOUT SYSTEM TIMING CONSTANTS    *                       
                                     *                                           *                       
                                     *********************************************                       
                                                                                                         
                         ===X=    TOP OF PAGE REQUEST IF 'X' IS REPLACED BY '='                          
                                                                                                         
1                                                                           /    95 SUN SOLARIS NASTRAN    / MAY 17, 95 / PAGE     3
                                                                                                                                    
0                                                                                                                                   
0*** USER INFORMATION MESSAGE 225, GINO TIME CONSTANTS ARE BEING COMPUTED
     (SEE NASINFO FILE FOR ELIMINATION OF THESE COMPUTATIONS)
1                                                                           /    95 SUN SOLARIS NASTRAN    / MAY 17, 95 / PAGE     4
                                                                                                                                    
0        N A S T R A N    E X E C U T I V E    C O N T R O L    D E C K    E C H O                                                  
0                                                                                                                                   
                                                                                                                                    
                                                                                                                                    
     ID    T01301A,NASTRAN                                                           
     SOL   1                                                                         
     TIME  10                                                                        
     APP   DISP                                                                      
     $DIAG 15,-2,-14                                                                 
     ALTER      110                                                                  
     DATABASE   EQEXIN,BGPDT,GEOM2,CSTM,OUGV1,,//C,N,15/C,N,+1/C,N,+1  $             
     $ALTER     131                                                                  
     $DATABASE  EQEXIN,BGPDT,GEOM2,CSTM,OES1,,//C,N,16/C,N,+1  $                     
     ALTER      147                                                                  
     DATABASE   EQEXIN,BGPDT,GEOM2,CSTM,OES1,,//C,N,16/C,N,+1  $                     
     JUMP       FINIS                                                                
     ENDALTER                                                                        
     CEND                                                                            


0*** USER INFORMATION MESSAGE, TURN DIAG 48 ON FOR NASTRAN RELEASE NEWS, DIAG DEFINITION, NEW DMAP
         MODULES AND NEW BULKDATA CARDS INFORMATION
1     TESTING DATABASE MODULE                                               /    95 SUN SOLARIS NASTRAN    / MAY 17, 95 / PAGE     5
      NASTRAN TEST PROBLEM NO. T01-30-1A                                                                                            
0                                                                                                                                   
0                                        C A S E    C O N T R O L   D E C K   E C H O                                               
                 CARD                                                                                                               
                 COUNT                                                                                                              
                  1      TITLE    = TESTING DATABASE MODULE                                              
                  2      SUBTITLE = NASTRAN TEST PROBLEM NO. T01-30-1A                                   
                  3      SPC   = 10                                                                      
                  4      DISP  = ALL                                                                     
                  5      STRES = ALL                                                                     
                  6      ELFOR = ALL                                                                     
                  7      ECHO  = NONE                                                                    
                  8      LOAD  = 20                                                                      
                  9      BEGIN BULK                                                                      


                        (NO. OF UNSORTED BULK DATA CARDS READ =    14, INCLUDING   0 COMMENT CARDS)
0*** USER INFORMATION MESSAGE 207, BULK DATA DECK IS NOT SORTED. NASTRAN WILL RE-ORDER THE INPUT DECK.
0*** USER INFORMATION MESSAGE -  GRID-POINT RESEQUENCING PROCESSOR BANDIT IS NOT USED DUE TO
     SMALL PROBLEM SIZE
0          **NO ERRORS FOUND - EXECUTE NASTRAN PROGRAM**
0*** USER INFORMATION MESSAGE 238, TURN DIAG 38 ON FOR ADDITIONAL ELEMENT PROCESSING INFORMATION

1     TESTING DATABASE MODULE                                               /    95 SUN SOLARIS NASTRAN    / MAY 17, 95 / PAGE     6
      NASTRAN TEST PROBLEM NO. T01-30-1A                                                                                            

                                                                                                                                    




0*** USER INFORMATION MESSAGE 3113,
     EMG MODULE PROCESSING DOUBLE PRECISION QUAD4    ELEMENTS (ELEMENT TYPE  64) STARTING WITH ID        1
0*** USER INFORMATION MESSAGE 3035
     FOR SUBCASE NUMBER     1, EPSILON SUB E =   8.9120300E-15
1     TESTING DATABASE MODULE                                               /    95 SUN SOLARIS NASTRAN    / MAY 17, 95 / PAGE     7
      NASTRAN TEST PROBLEM NO. T01-30-1A                                                                                            
0                                                                                                                                   
0                                                                                                                                   
                                                                                                                                    
                                                                                                                                    
0*** USER INFORMATION MESSAGE, DATABASE NEW DMAP FORMAT

     DATABASE   EQEXIN,BGPDT,GEOM2,CSTM,O1,O2,O3//C,N,OUTTP/C,N,FORMAT/C,N,BASIC  $
     FIRST 4 FILES ARE FIXED IN NAMES AND ORDER, NEXT 3 FILES CAN BE SELECTED BY USER
     FIRST EQEXIN FILE MUST BE PRESENT, OTHERS CAN BE SELECTIVELY OMITTED
0*** USER INFORMATION MESSAGE -
     DATABASE MODULE TRANSFERRED THE FOLLOWING  3 SETS OF DATA TO OUTPUT FILE  INP1
+                                                                                     (FORTRAN UNIT 15),   FORMATTED   

     1. GRID POINT DATA - EXTERNAL NUMBERS AND BASIC RECTANGULAR COORDINATES

     2. ELEMENT CONNECTIVITY DATA - ALL GRID POINTS ARE EXTERNAL NUMBERS

     3. DISPLCNT DATA FROM INPUT FILE OUGV1   
+                                              , IN NASTRAN GLOBAL COORDINATE SYSTEM,
+                                                                                          1 SUBCASES
1     TESTING DATABASE MODULE                                               /    95 SUN SOLARIS NASTRAN    / MAY 17, 95 / PAGE     8
      NASTRAN TEST PROBLEM NO. T01-30-1A                                                                                            
0                                                                                                                                   
 
                                             D I S P L A C E M E N T   V E C T O R
 
      POINT ID.   TYPE          T1             T2             T3             R1             R2             R3
             1      G      0.0            0.0            0.0            0.0            0.0            0.0                           
             2      G      0.0            0.0            0.0            0.0            0.0            0.0                           
             3      G     -1.478750E-05   2.560278E-05   3.564502E-03   5.329478E-05  -6.608641E-03   0.0                           
             4      G      2.161250E-05   2.813055E-05   2.632305E-03   1.793343E-03  -4.833373E-03   0.0                           
             5      G      2.433680E-05   6.963935E-05   8.925877E-03   2.351535E-03  -7.309748E-03   0.0                           
             6      G     -1.206319E-05   7.422730E-05   1.128044E-02   2.280297E-03  -8.315651E-03   0.0                           
1     TESTING DATABASE MODULE                                               /    95 SUN SOLARIS NASTRAN    / MAY 17, 95 / PAGE     9
      NASTRAN TEST PROBLEM NO. T01-30-1A                                                                                            
0                                                                                                                                   
 
                    F O R C E S   I N   G E N E R A L   Q U A D R I L A T E R A L   E L E M E N T S     ( Q U A D 4 )

      ELEMENT            - MEMBRANE  FORCES -                      - BENDING   MOMENTS -           - TRANSVERSE SHEAR FORCES -
        ID          FX            FY            FXY           MX            MY            MXY           VX            VY
 
0           1   -7.91647E-01   9.99998E+00   1.00000E+01  -2.32494E+00  -1.50000E+01  -1.74130E+00  -1.95114E-01  -1.04572E+01      
0           2    6.09027E+00   1.00000E+01   1.00000E+01   7.64107E-01  -5.00000E+00  -2.67614E+00  -1.04445E+00  -1.04571E+01      
1     TESTING DATABASE MODULE                                               /    95 SUN SOLARIS NASTRAN    / MAY 17, 95 / PAGE    10
      NASTRAN TEST PROBLEM NO. T01-30-1A                                                                                            
0                                                                                                                                   
 
                  S T R E S S E S   I N   G E N E R A L   Q U A D R I L A T E R A L   E L E M E N T S      ( C Q U A D 4 )
                                                  (IN STRESS COORDINATE SYSTEM)

  ELEMENT      FIBRE               STRESSES IN STRESS COORD. SYSTEM             PRINCIPAL STRESSES (ZERO SHEAR)            MAX
    ID.       DISTANCE           NORMAL-X       NORMAL-Y      SHEAR-XY       ANGLE         MAJOR           MINOR          SHEAR
0       1   -5.000000E-02     -1.402881E+03  -8.900000E+03  -9.447805E+02    -7.0731   -1.285654E+03   -9.017228E+03   3.865787E+03 
             5.000000E-02      1.387048E+03   9.100000E+03   1.144781E+03    81.7333    9.266325E+03    1.220723E+03   4.022801E+03 
0       2   -5.000000E-02      5.193671E+02  -2.900000E+03  -1.505682E+03   -20.6848    1.087862E+03   -3.468495E+03   2.278179E+03 
             5.000000E-02     -3.975616E+02   3.100000E+03   1.705682E+03    67.8574    3.794084E+03   -1.091645E+03   2.442865E+03 
1     TESTING DATABASE MODULE                                               /    95 SUN SOLARIS NASTRAN    / MAY 17, 95 / PAGE    11
      NASTRAN TEST PROBLEM NO. T01-30-1A                                                                                            
0                                                                                                                                   
0                                                                                                                                   
                                                                                                                                    
                                                                                                                                    
0*** USER INFORMATION MESSAGE, DATABASE NEW DMAP FORMAT

     DATABASE   EQEXIN,BGPDT,GEOM2,CSTM,O1,O2,O3//C,N,OUTTP/C,N,FORMAT/C,N,BASIC  $
     FIRST 4 FILES ARE FIXED IN NAMES AND ORDER, NEXT 3 FILES CAN BE SELECTED BY USER
     FIRST EQEXIN FILE MUST BE PRESENT, OTHERS CAN BE SELECTIVELY OMITTED
1     TESTING DATABASE MODULE                                               /    95 SUN SOLARIS NASTRAN    / MAY 17, 95 / PAGE    12
      NASTRAN TEST PROBLEM NO. T01-30-1A                                                                                            

                                                                                                                                    




0*** USER INFORMATION MESSAGE -
     DATABASE MODULE TRANSFERRED THE FOLLOWING  3 SETS OF DATA TO OUTPUT FILE  INP2
+                                                                                     (FORTRAN UNIT 16),   FORMATTED   

     1. GRID POINT DATA - EXTERNAL NUMBERS AND BASIC RECTANGULAR COORDINATES

     2. ELEMENT CONNECTIVITY DATA - ALL GRID POINTS ARE EXTERNAL NUMBERS

     3. E.STRESS DATA FROM INPUT FILE OES1    
+                                                 1 SUBCASES




                                        * * * END OF JOB * * *
1
 JOB TITLE =  TESTING DATABASE MODULE                                            
 DATE:  5/17/95
 END TIME: 16:40:39
 TOTAL WALL CLOCK TIME      2 SEC.
 
