





                                  ****
                                *      *
                               *        *
                               *  N A S T R A N
                               *        *
                                *      *
                                  ****


                             SUN COMPUTER SYSTEMS    
                                SOLARIS VERSION

                          SYSTEM RELEASE -  1995 ED.

                                DISTRIBUTED BY

         COMPUTER SOFTWARE MANAGEMENT AND INFORMATION CENTER (COSMIC)
                 UNIVERSITY OF GEORGIA, ATHENS, GEORGIA 30602
                 PHONE: (706)542-3265      FAX: (706)542-4807
1                                                                           /    95 SUN SOLARIS NASTRAN    / MAY 17, 95 / PAGE     2
                                                                                                                                    
0                                                                                                                                   
                                                                                                         
                                                                                                         
                         INSTALLATION CENTER USER INFORMATION GIVEN IN THIS SECTION                      
                                                                                                         
                                     *********************************************                       
                                     *                                           *                       
                                     *  PLEASE READ THE COMMENT IN DEMO PROBLEM  *                       
                                     *  D01002A ABOUT SYSTEM TIMING CONSTANTS    *                       
                                     *                                           *                       
                                     *********************************************                       
                                                                                                         
                         ===X=    TOP OF PAGE REQUEST IF 'X' IS REPLACED BY '='                          
                                                                                                         
1                                                                           /    95 SUN SOLARIS NASTRAN    / MAY 17, 95 / PAGE     3
                                                                                                                                    
0                                                                                                                                   
0*** USER INFORMATION MESSAGE 225, GINO TIME CONSTANTS ARE BEING COMPUTED
     (SEE NASINFO FILE FOR ELIMINATION OF THESE COMPUTATIONS)
1                                                                           /    95 SUN SOLARIS NASTRAN    / MAY 17, 95 / PAGE     4
                                                                                                                                    
0        N A S T R A N    E X E C U T I V E    C O N T R O L    D E C K    E C H O                                                  
0                                                                                                                                   
                                                                                                                                    
                                                                                                                                    
     ID    T03091A,NASTRAN                                                           
     SOL   3                                                                         
     TIME  20                                                                        
     APP   DISP                                                                      
     CEND                                                                            


0*** USER INFORMATION MESSAGE, TURN DIAG 48 ON FOR NASTRAN RELEASE NEWS, DIAG DEFINITION, NEW DMAP
         MODULES AND NEW BULKDATA CARDS INFORMATION
1     TRAPEZOIDAL (TRAPAX) ELEMENT PROBLEM                                  /    95 SUN SOLARIS NASTRAN    / MAY 17, 95 / PAGE     5
      NASTRAN TEST PROBLEM NO. T03-09-1A                                                                                            
0                                                                                                                                   
0                                        C A S E    C O N T R O L   D E C K   E C H O                                               
                 CARD                                                                                                               
                 COUNT                                                                                                              
                  1      TITLE    = TRAPEZOIDAL (TRAPAX) ELEMENT PROBLEM                                 
                  2      SUBTITLE = NASTRAN TEST PROBLEM NO. T03-09-1A                                   
                  3        METHOD = 1                                                                    
                  4        AXISYM = COSINE                                                               
                  5      SUBCASE  1                                                                      
                  6         DISP  = ALL                                                                  
                  7         MODES = 5                                                                    
                  8      SUBCASE  6                                                                      
                  9         DISP  = NONE                                                                 
                 10      BEGIN BULK                                                                      


                        (NO. OF UNSORTED BULK DATA CARDS READ =    94, INCLUDING   0 COMMENT CARDS)
0*** USER INFORMATION MESSAGE 207, BULK DATA DECK IS NOT SORTED. NASTRAN WILL RE-ORDER THE INPUT DECK.
1     TRAPEZOIDAL (TRAPAX) ELEMENT PROBLEM                                  /    95 SUN SOLARIS NASTRAN    / MAY 17, 95 / PAGE     6
      NASTRAN TEST PROBLEM NO. T03-09-1A                                                                                            
0                                                                                                                                   
0                                                 S O R T E D   B U L K    D A T A    E C H O                                       
                     CARD                                                                                                           
                     COUNT        ---1--- +++2+++ ---3--- +++4+++ ---5--- +++6+++ ---7--- +++8+++ ---9--- +++10+++                  
                    1-        AXIC    1                                                                       
                    2-        CTRAPAX 1       1       1       2       6       5                               
                    3-        CTRAPAX 2       1       2       3       7       6                               
                    4-        CTRAPAX 3       1       3       4       8       7                               
                    5-        CTRAPAX 5       1       5       6       10      9                               
                    6-        CTRAPAX 6       1       6       7       11      10                              
                    7-        CTRAPAX 7       1       7       8       12      11                              
                    8-        CTRAPAX 9       1       9       10      14      13                              
                    9-        CTRAPAX 10      1       10      11      15      14                              
                   10-        CTRAPAX 11      1       11      12      16      15                              
                   11-        CTRAPAX 13      1       13      14      18      17                              
                   12-        CTRAPAX 14      1       14      15      19      18                              
                   13-        CTRAPAX 15      1       15      16      20      19                              
                   14-        CTRAPAX 17      1       17      18      22      21                              
                   15-        CTRAPAX 18      1       18      19      23      22                              
                   16-        CTRAPAX 19      1       19      20      24      23                              
                   17-        CTRAPAX 21      1       21      22      26      25                              
                   18-        CTRAPAX 22      1       22      23      27      26                              
                   19-        CTRAPAX 23      1       23      24      28      27                              
                   20-        CTRAPAX 25      1       25      26      30      29                              
                   21-        CTRAPAX 26      1       26      27      31      30                              
                   22-        CTRAPAX 27      1       27      28      32      31                              
                   23-        CTRAPAX 29      1       29      30      34      33                              
                   24-        CTRAPAX 30      1       30      31      35      34                              
                   25-        CTRAPAX 31      1       31      32      36      35                              
                   26-        CTRAPAX 33      1       33      34      38      37                              
                   27-        CTRAPAX 34      1       34      35      39      38                              
                   28-        CTRAPAX 35      1       35      36      40      39                              
                   29-        CTRAPAX 37      1       37      38      42      41                              
                   30-        CTRAPAX 38      1       38      39      43      42                              
                   31-        CTRAPAX 39      1       39      40      44      43                              
                   32-        CTRAPAX 41      1       41      42      46      45                              
                   33-        CTRAPAX 42      1       42      43      47      46                              
                   34-        CTRAPAX 43      1       43      44      48      47                              
                   35-        CTRAPAX 45      1       45      46      50      49                              
                   36-        CTRAPAX 46      1       46      47      51      50                              
                   37-        CTRAPAX 47      1       47      48      52      51                              
                   38-        EIGR    1       INV     0.      5000.   10      10              1.-3    +E      
                   39-        +E      MAX                                                                     
                   40-        MAT1    1       3.+7            .3      7.8-3                                   
                   41-        PARAM   COUPMASS1                                                               
                   42-        PTRAPAX 1               1                                                       
                   43-        RINGAX  1               5.0000  2.0000                  2456                    
                   44-        RINGAX  2               5.4167  2.0000                  2456                    
                   45-        RINGAX  3               5.8333  2.0000                  2456                    
                   46-        RINGAX  4               6.2500  2.0000                  2456                    
                   47-        RINGAX  5               5.0000  2.2917                  2456                    
1     TRAPEZOIDAL (TRAPAX) ELEMENT PROBLEM                                  /    95 SUN SOLARIS NASTRAN    / MAY 17, 95 / PAGE     7
      NASTRAN TEST PROBLEM NO. T03-09-1A                                                                                            

                                                                                                                                    

                                                  S O R T E D   B U L K    D A T A    E C H O                                       
                     CARD                                                                                                           
                     COUNT        ---1--- +++2+++ ---3--- +++4+++ ---5--- +++6+++ ---7--- +++8+++ ---9--- +++10+++                  
                   48-        RINGAX  6               5.4167  2.2917                  2456                    
                   49-        RINGAX  7               5.8333  2.2917                  2456                    
                   50-        RINGAX  8               6.2500  2.2917                  2456                    
                   51-        RINGAX  9               5.0000  2.5833                  2456                    
                   52-        RINGAX  10              5.4167  2.5833                  2456                    
                   53-        RINGAX  11              5.8333  2.5833                  2456                    
                   54-        RINGAX  12              6.2500  2.5833                  2456                    
                   55-        RINGAX  13              5.0000  2.8750                  2456                    
                   56-        RINGAX  14              5.4167  2.8750                  2456                    
                   57-        RINGAX  15              5.8333  2.8750                  2456                    
                   58-        RINGAX  16              6.2500  2.8750                  2456                    
                   59-        RINGAX  17              5.0000  3.1667                  2456                    
                   60-        RINGAX  18              5.4167  3.1667                  2456                    
                   61-        RINGAX  19              5.8333  3.1667                  2456                    
                   62-        RINGAX  20              6.2500  3.1667                  2456                    
                   63-        RINGAX  21              5.0000  3.4583                  2456                    
                   64-        RINGAX  22              5.4167  3.4583                  2456                    
                   65-        RINGAX  23              5.8333  3.4583                  2456                    
                   66-        RINGAX  24              6.2500  3.4583                  2456                    
                   67-        RINGAX  25              5.0000  3.7500                  2456                    
                   68-        RINGAX  26              5.4167  3.7500                  2456                    
                   69-        RINGAX  27              5.8333  3.7500                  2456                    
                   70-        RINGAX  28              6.2500  3.7500                  2456                    
                   71-        RINGAX  29              5.0000  4.0417                  2456                    
                   72-        RINGAX  30              5.4167  4.0417                  2456                    
                   73-        RINGAX  31              5.8333  4.0417                  2456                    
                   74-        RINGAX  32              6.2500  4.0417                  2456                    
                   75-        RINGAX  33              5.0000  4.3333                  2456                    
                   76-        RINGAX  34              5.4167  4.3333                  2456                    
                   77-        RINGAX  35              5.8333  4.3333                  2456                    
                   78-        RINGAX  36              6.2500  4.3333                  2456                    
                   79-        RINGAX  37              5.0000  4.6250                  2456                    
                   80-        RINGAX  38              5.4167  4.6250                  2456                    
                   81-        RINGAX  39              5.8333  4.6250                  2456                    
                   82-        RINGAX  40              6.2500  4.6250                  2456                    
                   83-        RINGAX  41              5.0000  4.9167                  2456                    
                   84-        RINGAX  42              5.4167  4.9167                  2456                    
                   85-        RINGAX  43              5.8333  4.9167                  2456                    
                   86-        RINGAX  44              6.2500  4.9167                  2456                    
                   87-        RINGAX  45              5.0000  5.2083                  2456                    
                   88-        RINGAX  46              5.4167  5.2083                  2456                    
                   89-        RINGAX  47              5.8333  5.2083                  2456                    
                   90-        RINGAX  48              6.2500  5.2083                  2456                    
                   91-        RINGAX  49              5.0000  5.5000                  2456                    
                   92-        RINGAX  50              5.4167  5.5000                  2456                    
                   93-        RINGAX  51              5.8333  5.5000                  2456                    
                   94-        RINGAX  52              6.2500  5.5000                  2456                    
1     TRAPEZOIDAL (TRAPAX) ELEMENT PROBLEM                                  /    95 SUN SOLARIS NASTRAN    / MAY 17, 95 / PAGE     8
      NASTRAN TEST PROBLEM NO. T03-09-1A                                                                                            

                                                                                                                                    

                                                  S O R T E D   B U L K    D A T A    E C H O                                       
                     CARD                                                                                                           
                     COUNT        ---1--- +++2+++ ---3--- +++4+++ ---5--- +++6+++ ---7--- +++8+++ ---9--- +++10+++                  
                              ENDDATA
0*** USER INFORMATION MESSAGE - GRID-POINT RESEQUENCING PROCESSOR BANDIT IS NOT USED DUE TO
     THE PRESENCE OF AXISYMMETRIC SOLID DATA
0          **NO ERRORS FOUND - EXECUTE NASTRAN PROGRAM**
0*** USER INFORMATION MESSAGE 238, TURN DIAG 38 ON FOR ADDITIONAL ELEMENT PROCESSING INFORMATION

1     TRAPEZOIDAL (TRAPAX) ELEMENT PROBLEM                                  /    95 SUN SOLARIS NASTRAN    / MAY 17, 95 / PAGE     9
      NASTRAN TEST PROBLEM NO. T03-09-1A                                                                                            

                                                                                                                                    




0*** USER INFORMATION MESSAGE 3113,
     EMG MODULE PROCESSING DOUBLE PRECISION TRAPAX   ELEMENTS (ELEMENT TYPE  71) STARTING WITH ID     1001
                        6 ROOTS BELOW   2.467401E+08
                        5 ROOTS BELOW   1.689509E+08
                        4 ROOTS BELOW   1.553757E+08
                        3 ROOTS BELOW   1.222577E+08
                        1 ROOTS BELOW   3.811508E+07
                        2 ROOTS BELOW   4.690468E+07
                        7 ROOTS BELOW   1.156938E+09
1     TRAPEZOIDAL (TRAPAX) ELEMENT PROBLEM                                  /    95 SUN SOLARIS NASTRAN    / MAY 17, 95 / PAGE    10
      NASTRAN TEST PROBLEM NO. T03-09-1A                                                                                            
0                                                                                                                                   
 
 
                              E I G E N V A L U E   A N A L Y S I S   S U M M A R Y     (INVERSE POWER METHOD)
0
0                                       NUMBER OF EIGENVALUES EXTRACTED  . . . . . .         7
0                                       NUMBER OF STARTING POINTS USED . . . . . . .         1
0                                       NUMBER OF STARTING POINT MOVES . . . . . . .         0
0                                       NUMBER OF TRIANGULAR DECOMPOSITIONS  . . . .         7
0                                       TOTAL NUMBER OF VECTOR ITERATIONS  . . . . .        64

0                                       REASON FOR TERMINATION . . . . . . . . . . .         7*

0                                       LARGEST OFF-DIAGONAL MODAL MASS TERM . . . .  0.43E-08
0                                                                              . . .         3
                                                  MODE PAIR . . . . . . . . . .
                                                                               . . .         1
0                                       NUMBER OF OFF-DIAGONAL MODAL MASS
                                             TERMS FAILING CRITERION . . . . . . . .         0

0                                       (* 1 OR MORE ROOT OUTSIDE FR.RANGE.
                                         SEE NASTRAN U.M. VOL II, SECTION 2.3.3)
1     TRAPEZOIDAL (TRAPAX) ELEMENT PROBLEM                                  /    95 SUN SOLARIS NASTRAN    / MAY 17, 95 / PAGE    11
      NASTRAN TEST PROBLEM NO. T03-09-1A                                                                                            
0                                                                                                                                   
 
                                              R E A L   E I G E N V A L U E S

   MODE    EXTRACTION       EIGENVALUE            RADIAN              CYCLIC           GENERALIZED         GENERALIZED
    NO.       ORDER                              FREQUENCY           FREQUENCY            MASS              STIFFNESS


                                     ****************************************************************
                                     *                                                              *
                                     *
+                                             NASTRAN INFORMATION MESSAGE 3307, POTENTIALLY         *
                                     *         7 EIGENVALUE(S) AT LOW FREQ. END NOT FOUND           *
                                     *                                                              *
                                     *        (THIS MESSAGE CAN BE SUPPRESSED BY DIAG 37)           *
                                     ****************************************************************

        1         6       -4.758504E-01        6.898191E-01        1.097881E-01        1.206074E+00       -5.739107E-01             
        2         5        4.690455E+07        6.848689E+03        1.090003E+03        5.882022E-01        2.758936E+07             
        3         4        1.088195E+08        1.043166E+04        1.660250E+03        4.238784E-01        4.612622E+07             
        4         3        1.222931E+08        1.105862E+04        1.760034E+03        1.115104E+00        1.363694E+08             
        5         2        1.561220E+08        1.249488E+04        1.988622E+03        2.121759E-01        3.312532E+07             
        6         1        1.694655E+08        1.301789E+04        2.071862E+03        5.580937E-01        9.457763E+07             
        7         7        1.154310E+09        3.397514E+04        5.407312E+03        3.974966E-01        4.588343E+08             
1     TRAPEZOIDAL (TRAPAX) ELEMENT PROBLEM                                  /    95 SUN SOLARIS NASTRAN    / MAY 17, 95 / PAGE    12
      NASTRAN TEST PROBLEM NO. T03-09-1A                                                                                            
0                                                                                                            SUBCASE  1             
      EIGENVALUE = -0.475850E+00    (CYCLIC FREQUENCY =  1.097881E-01 HZ)

                                         R E A L   E I G E N V E C T O R   N O .          1
     SECTOR-ID
      POINT-ID
       RING-ID  HARMONIC        T1             T2             T3             R1             R2             R3
             1      0     -3.361333E-06   0.0            9.999998E-01   0.0            0.0            0.0                           
             2      0     -3.284431E-06   0.0            9.999991E-01   0.0            0.0            0.0                           
             3      0     -3.215174E-06   0.0            9.999983E-01   0.0            0.0            0.0                           
             4      0     -3.150460E-06   0.0            9.999975E-01   0.0            0.0            0.0                           
             5      0     -2.807547E-06   0.0            9.999999E-01   0.0            0.0            0.0                           
             6      0     -2.742344E-06   0.0            9.999991E-01   0.0            0.0            0.0                           
             7      0     -2.684300E-06   0.0            9.999983E-01   0.0            0.0            0.0                           
             8      0     -2.630576E-06   0.0            9.999976E-01   0.0            0.0            0.0                           
             9      0     -2.253496E-06   0.0            9.999999E-01   0.0            0.0            0.0                           
            10      0     -2.201454E-06   0.0            9.999992E-01   0.0            0.0            0.0                           
            11      0     -2.154827E-06   0.0            9.999984E-01   0.0            0.0            0.0                           
            12      0     -2.111465E-06   0.0            9.999976E-01   0.0            0.0            0.0                           
            13      0     -1.698928E-06   0.0            9.999999E-01   0.0            0.0            0.0                           
            14      0     -1.660389E-06   0.0            9.999992E-01   0.0            0.0            0.0                           
            15      0     -1.625295E-06   0.0            9.999984E-01   0.0            0.0            0.0                           
            16      0     -1.592016E-06   0.0            9.999976E-01   0.0            0.0            0.0                           
            17      0     -1.142849E-06   0.0            9.999999E-01   0.0            0.0            0.0                           
            18      0     -1.118003E-06   0.0            9.999992E-01   0.0            0.0            0.0                           
            19      0     -1.094440E-06   0.0            9.999985E-01   0.0            0.0            0.0                           
            20      0     -1.071086E-06   0.0            9.999976E-01   0.0            0.0            0.0                           
            21      0     -5.841291E-07   0.0            1.000000E+00   0.0            0.0            0.0                           
            22      0     -5.729829E-07   0.0            9.999992E-01   0.0            0.0            0.0                           
            23      0     -5.609310E-07   0.0            9.999985E-01   0.0            0.0            0.0                           
            24      0     -5.475186E-07   0.0            9.999976E-01   0.0            0.0            0.0                           
            25      0     -2.121099E-08   0.0            1.000000E+00   0.0            0.0            0.0                           
            26      0     -2.365891E-08   0.0            9.999992E-01   0.0            0.0            0.0                           
            27      0     -2.316297E-08   0.0            9.999985E-01   0.0            0.0            0.0                           
            28      0     -1.993791E-08   0.0            9.999976E-01   0.0            0.0            0.0                           
            29      0      5.464240E-07   0.0            1.000000E+00   0.0            0.0            0.0                           
            30      0      5.305666E-07   0.0            9.999992E-01   0.0            0.0            0.0                           
            31      0      5.193846E-07   0.0            9.999985E-01   0.0            0.0            0.0                           
            32      0      5.120261E-07   0.0            9.999976E-01   0.0            0.0            0.0                           
            33      0      1.118615E-06   0.0            1.000000E+00   0.0            0.0            0.0                           
            34      0      1.089580E-06   0.0            9.999992E-01   0.0            0.0            0.0                           
            35      0      1.066593E-06   0.0            9.999985E-01   0.0            0.0            0.0                           
            36      0      1.048221E-06   0.0            9.999976E-01   0.0            0.0            0.0                           
            37      0      1.695136E-06   0.0            1.000000E+00   0.0            0.0            0.0                           
            38      0      1.653152E-06   0.0            9.999992E-01   0.0            0.0            0.0                           
            39      0      1.618221E-06   0.0            9.999984E-01   0.0            0.0            0.0                           
            40      0      1.588407E-06   0.0            9.999976E-01   0.0            0.0            0.0                           
            41      0      2.274542E-06   0.0            9.999999E-01   0.0            0.0            0.0                           
            42      0      2.219830E-06   0.0            9.999992E-01   0.0            0.0            0.0                           
            43      0      2.172836E-06   0.0            9.999984E-01   0.0            0.0            0.0                           
            44      0      2.131194E-06   0.0            9.999976E-01   0.0            0.0            0.0                           
            45      0      2.854774E-06   0.0            9.999999E-01   0.0            0.0            0.0                           
            46      0      2.787544E-06   0.0            9.999992E-01   0.0            0.0            0.0                           
1     TRAPEZOIDAL (TRAPAX) ELEMENT PROBLEM                                  /    95 SUN SOLARIS NASTRAN    / MAY 17, 95 / PAGE    13
      NASTRAN TEST PROBLEM NO. T03-09-1A                                                                                            
0                                                                                                            SUBCASE  1             
      EIGENVALUE = -0.475850E+00    (CYCLIC FREQUENCY =  1.097881E-01 HZ)

                                         R E A L   E I G E N V E C T O R   N O .          1
     SECTOR-ID
      POINT-ID
       RING-ID  HARMONIC        T1             T2             T3             R1             R2             R3
            47      0      2.728574E-06   0.0            9.999983E-01   0.0            0.0            0.0                           
            48      0      2.674866E-06   0.0            9.999975E-01   0.0            0.0            0.0                           
            49      0      3.433663E-06   0.0            9.999999E-01   0.0            0.0            0.0                           
            50      0      3.354399E-06   0.0            9.999991E-01   0.0            0.0            0.0                           
            51      0      3.283783E-06   0.0            9.999982E-01   0.0            0.0            0.0                           
            52      0      3.218461E-06   0.0            9.999974E-01   0.0            0.0            0.0                           
1     TRAPEZOIDAL (TRAPAX) ELEMENT PROBLEM                                  /    95 SUN SOLARIS NASTRAN    / MAY 17, 95 / PAGE    14
      NASTRAN TEST PROBLEM NO. T03-09-1A                                                                                            
0                                                                                                            SUBCASE  1             
      EIGENVALUE =  0.469045E+08    (CYCLIC FREQUENCY =  1.090003E+03 HZ)

                                         R E A L   E I G E N V E C T O R   N O .          2
     SECTOR-ID
      POINT-ID
       RING-ID  HARMONIC        T1             T2             T3             R1             R2             R3
             1      0     -9.965931E-05   0.0            3.304831E-05   0.0            0.0            0.0                           
             2      0     -9.736842E-05   0.0            9.606859E-06   0.0            0.0            0.0                           
             3      0     -9.531625E-05   0.0           -1.342217E-05   0.0            0.0            0.0                           
             4      0     -9.340864E-05   0.0           -3.591328E-05   0.0            0.0            0.0                           
             5      0     -8.304563E-05   0.0            3.464297E-05   0.0            0.0            0.0                           
             6      0     -8.110349E-05   0.0            1.106402E-05   0.0            0.0            0.0                           
             7      0     -7.938762E-05   0.0           -1.208771E-05   0.0            0.0            0.0                           
             8      0     -7.781218E-05   0.0           -3.468357E-05   0.0            0.0            0.0                           
             9      0     -6.640884E-05   0.0            3.589424E-05   0.0            0.0            0.0                           
            10      0     -6.484381E-05   0.0            1.224985E-05   0.0            0.0            0.0                           
            11      0     -6.347164E-05   0.0           -1.098743E-05   0.0            0.0            0.0                           
            12      0     -6.222529E-05   0.0           -3.362897E-05   0.0            0.0            0.0                           
            13      0     -4.977771E-05   0.0            3.683699E-05   0.0            0.0            0.0                           
            14      0     -4.859734E-05   0.0            1.316751E-05   0.0            0.0            0.0                           
            15      0     -4.757097E-05   0.0           -1.012202E-05   0.0            0.0            0.0                           
            16      0     -4.664563E-05   0.0           -3.278059E-05   0.0            0.0            0.0                           
            17      0     -3.316699E-05   0.0            3.749433E-05   0.0            0.0            0.0                           
            18      0     -3.237715E-05   0.0            1.381965E-05   0.0            0.0            0.0                           
            19      0     -3.169449E-05   0.0           -9.498061E-06   0.0            0.0            0.0                           
            20      0     -3.108249E-05   0.0           -3.216007E-05   0.0            0.0            0.0                           
            21      0     -1.658088E-05   0.0            3.788236E-05   0.0            0.0            0.0                           
            22      0     -1.618500E-05   0.0            1.420933E-05   0.0            0.0            0.0                           
            23      0     -1.584410E-05   0.0           -9.121423E-06   0.0            0.0            0.0                           
            24      0     -1.553952E-05   0.0           -3.178199E-05   0.0            0.0            0.0                           
            25      0     -2.990176E-13   0.0            3.801073E-05   0.0            0.0            0.0                           
            26      0     -2.951373E-13   0.0            1.433903E-05   0.0            0.0            0.0                           
            27      0     -2.880118E-13   0.0           -8.995426E-06   0.0            0.0            0.0                           
            28      0     -2.784114E-13   0.0           -3.165493E-05   0.0            0.0            0.0                           
            29      0      1.658088E-05   0.0            3.788236E-05   0.0            0.0            0.0                           
            30      0      1.618500E-05   0.0            1.420933E-05   0.0            0.0            0.0                           
            31      0      1.584410E-05   0.0           -9.121423E-06   0.0            0.0            0.0                           
            32      0      1.553952E-05   0.0           -3.178199E-05   0.0            0.0            0.0                           
            33      0      3.316699E-05   0.0            3.749433E-05   0.0            0.0            0.0                           
            34      0      3.237715E-05   0.0            1.381965E-05   0.0            0.0            0.0                           
            35      0      3.169449E-05   0.0           -9.498061E-06   0.0            0.0            0.0                           
            36      0      3.108249E-05   0.0           -3.216007E-05   0.0            0.0            0.0                           
            37      0      4.977771E-05   0.0            3.683699E-05   0.0            0.0            0.0                           
            38      0      4.859733E-05   0.0            1.316751E-05   0.0            0.0            0.0                           
            39      0      4.757097E-05   0.0           -1.012202E-05   0.0            0.0            0.0                           
            40      0      4.664563E-05   0.0           -3.278059E-05   0.0            0.0            0.0                           
            41      0      6.640884E-05   0.0            3.589424E-05   0.0            0.0            0.0                           
            42      0      6.484381E-05   0.0            1.224985E-05   0.0            0.0            0.0                           
            43      0      6.347164E-05   0.0           -1.098742E-05   0.0            0.0            0.0                           
            44      0      6.222529E-05   0.0           -3.362897E-05   0.0            0.0            0.0                           
            45      0      8.304563E-05   0.0            3.464297E-05   0.0            0.0            0.0                           
            46      0      8.110348E-05   0.0            1.106402E-05   0.0            0.0            0.0                           
1     TRAPEZOIDAL (TRAPAX) ELEMENT PROBLEM                                  /    95 SUN SOLARIS NASTRAN    / MAY 17, 95 / PAGE    15
      NASTRAN TEST PROBLEM NO. T03-09-1A                                                                                            
0                                                                                                            SUBCASE  1             
      EIGENVALUE =  0.469045E+08    (CYCLIC FREQUENCY =  1.090003E+03 HZ)

                                         R E A L   E I G E N V E C T O R   N O .          2
     SECTOR-ID
      POINT-ID
       RING-ID  HARMONIC        T1             T2             T3             R1             R2             R3
            47      0      7.938762E-05   0.0           -1.208771E-05   0.0            0.0            0.0                           
            48      0      7.781218E-05   0.0           -3.468357E-05   0.0            0.0            0.0                           
            49      0      9.965931E-05   0.0            3.304831E-05   0.0            0.0            0.0                           
            50      0      9.736842E-05   0.0            9.606859E-06   0.0            0.0            0.0                           
            51      0      9.531625E-05   0.0           -1.342217E-05   0.0            0.0            0.0                           
            52      0      9.340864E-05   0.0           -3.591328E-05   0.0            0.0            0.0                           
1     TRAPEZOIDAL (TRAPAX) ELEMENT PROBLEM                                  /    95 SUN SOLARIS NASTRAN    / MAY 17, 95 / PAGE    16
      NASTRAN TEST PROBLEM NO. T03-09-1A                                                                                            
0                                                                                                            SUBCASE  1             
      EIGENVALUE =  0.108819E+09    (CYCLIC FREQUENCY =  1.660250E+03 HZ)

                                         R E A L   E I G E N V E C T O R   N O .          3
     SECTOR-ID
      POINT-ID
       RING-ID  HARMONIC        T1             T2             T3             R1             R2             R3
             1      0      1.000000E+00   0.0           -3.316128E-01   0.0            0.0            0.0                           
             2      0      9.770127E-01   0.0           -9.639699E-02   0.0            0.0            0.0                           
             3      0      9.564208E-01   0.0            1.346806E-01   0.0            0.0            0.0                           
             4      0      9.372795E-01   0.0            3.603605E-01   0.0            0.0            0.0                           
             5      0      8.332952E-01   0.0           -3.476140E-01   0.0            0.0            0.0                           
             6      0      8.138074E-01   0.0           -1.110184E-01   0.0            0.0            0.0                           
             7      0      7.965901E-01   0.0            1.212903E-01   0.0            0.0            0.0                           
             8      0      7.807818E-01   0.0            3.480214E-01   0.0            0.0            0.0                           
             9      0      6.663585E-01   0.0           -3.601694E-01   0.0            0.0            0.0                           
            10      0      6.506548E-01   0.0           -1.229173E-01   0.0            0.0            0.0                           
            11      0      6.368862E-01   0.0            1.102499E-01   0.0            0.0            0.0                           
            12      0      6.243801E-01   0.0            3.374393E-01   0.0            0.0            0.0                           
            13      0      4.994788E-01   0.0           -3.696292E-01   0.0            0.0            0.0                           
            14      0      4.876347E-01   0.0           -1.321252E-01   0.0            0.0            0.0                           
            15      0      4.773359E-01   0.0            1.015662E-01   0.0            0.0            0.0                           
            16      0      4.680508E-01   0.0            3.289265E-01   0.0            0.0            0.0                           
            17      0      3.328038E-01   0.0           -3.762251E-01   0.0            0.0            0.0                           
            18      0      3.248783E-01   0.0           -1.386689E-01   0.0            0.0            0.0                           
            19      0      3.180284E-01   0.0            9.530529E-02   0.0            0.0            0.0                           
            20      0      3.118874E-01   0.0            3.227001E-01   0.0            0.0            0.0                           
            21      0      1.663756E-01   0.0           -3.801186E-01   0.0            0.0            0.0                           
            22      0      1.624033E-01   0.0           -1.425791E-01   0.0            0.0            0.0                           
            23      0      1.589826E-01   0.0            9.152605E-02   0.0            0.0            0.0                           
            24      0      1.559264E-01   0.0            3.189064E-01   0.0            0.0            0.0                           
            25      0      3.014657E-09   0.0           -3.814068E-01   0.0            0.0            0.0                           
            26      0      2.975396E-09   0.0           -1.438804E-01   0.0            0.0            0.0                           
            27      0      2.903608E-09   0.0            9.026176E-02   0.0            0.0            0.0                           
            28      0      2.807007E-09   0.0            3.176314E-01   0.0            0.0            0.0                           
            29      0     -1.663756E-01   0.0           -3.801186E-01   0.0            0.0            0.0                           
            30      0     -1.624033E-01   0.0           -1.425791E-01   0.0            0.0            0.0                           
            31      0     -1.589826E-01   0.0            9.152605E-02   0.0            0.0            0.0                           
            32      0     -1.559264E-01   0.0            3.189064E-01   0.0            0.0            0.0                           
            33      0     -3.328038E-01   0.0           -3.762251E-01   0.0            0.0            0.0                           
            34      0     -3.248783E-01   0.0           -1.386689E-01   0.0            0.0            0.0                           
            35      0     -3.180284E-01   0.0            9.530529E-02   0.0            0.0            0.0                           
            36      0     -3.118874E-01   0.0            3.227001E-01   0.0            0.0            0.0                           
            37      0     -4.994788E-01   0.0           -3.696292E-01   0.0            0.0            0.0                           
            38      0     -4.876346E-01   0.0           -1.321252E-01   0.0            0.0            0.0                           
            39      0     -4.773359E-01   0.0            1.015662E-01   0.0            0.0            0.0                           
            40      0     -4.680508E-01   0.0            3.289265E-01   0.0            0.0            0.0                           
            41      0     -6.663585E-01   0.0           -3.601694E-01   0.0            0.0            0.0                           
            42      0     -6.506548E-01   0.0           -1.229173E-01   0.0            0.0            0.0                           
            43      0     -6.368862E-01   0.0            1.102499E-01   0.0            0.0            0.0                           
            44      0     -6.243801E-01   0.0            3.374393E-01   0.0            0.0            0.0                           
            45      0     -8.332952E-01   0.0           -3.476140E-01   0.0            0.0            0.0                           
            46      0     -8.138073E-01   0.0           -1.110184E-01   0.0            0.0            0.0                           
1     TRAPEZOIDAL (TRAPAX) ELEMENT PROBLEM                                  /    95 SUN SOLARIS NASTRAN    / MAY 17, 95 / PAGE    17
      NASTRAN TEST PROBLEM NO. T03-09-1A                                                                                            
0                                                                                                            SUBCASE  1             
      EIGENVALUE =  0.108819E+09    (CYCLIC FREQUENCY =  1.660250E+03 HZ)

                                         R E A L   E I G E N V E C T O R   N O .          3
     SECTOR-ID
      POINT-ID
       RING-ID  HARMONIC        T1             T2             T3             R1             R2             R3
            47      0     -7.965901E-01   0.0            1.212903E-01   0.0            0.0            0.0                           
            48      0     -7.807818E-01   0.0            3.480214E-01   0.0            0.0            0.0                           
            49      0     -1.000000E+00   0.0           -3.316128E-01   0.0            0.0            0.0                           
            50      0     -9.770127E-01   0.0           -9.639699E-02   0.0            0.0            0.0                           
            51      0     -9.564208E-01   0.0            1.346806E-01   0.0            0.0            0.0                           
            52      0     -9.372795E-01   0.0            3.603605E-01   0.0            0.0            0.0                           
1     TRAPEZOIDAL (TRAPAX) ELEMENT PROBLEM                                  /    95 SUN SOLARIS NASTRAN    / MAY 17, 95 / PAGE    18
      NASTRAN TEST PROBLEM NO. T03-09-1A                                                                                            
0                                                                                                            SUBCASE  1             
      EIGENVALUE =  0.122293E+09    (CYCLIC FREQUENCY =  1.760034E+03 HZ)

                                         R E A L   E I G E N V E C T O R   N O .          4
     SECTOR-ID
      POINT-ID
       RING-ID  HARMONIC        T1             T2             T3             R1             R2             R3
             1      0      9.797873E-01   0.0            1.082766E-01   0.0            0.0            0.0                           
             2      0      9.571791E-01   0.0            9.849149E-02   0.0            0.0            0.0                           
             3      0      9.370077E-01   0.0            8.924261E-02   0.0            0.0            0.0                           
             4      0      9.182331E-01   0.0            8.006150E-02   0.0            0.0            0.0                           
             5      0      9.860328E-01   0.0            9.072368E-02   0.0            0.0            0.0                           
             6      0      9.632818E-01   0.0            8.267042E-02   0.0            0.0            0.0                           
             7      0      9.429893E-01   0.0            7.484650E-02   0.0            0.0            0.0                           
             8      0      9.241526E-01   0.0            6.709372E-02   0.0            0.0            0.0                           
             9      0      9.910371E-01   0.0            7.293779E-02   0.0            0.0            0.0                           
            10      0      9.682822E-01   0.0            6.653246E-02   0.0            0.0            0.0                           
            11      0      9.479811E-01   0.0            6.021316E-02   0.0            0.0            0.0                           
            12      0      9.291136E-01   0.0            5.391906E-02   0.0            0.0            0.0                           
            13      0      9.949406E-01   0.0            5.492388E-02   0.0            0.0            0.0                           
            14      0      9.721913E-01   0.0            5.012247E-02   0.0            0.0            0.0                           
            15      0      9.519057E-01   0.0            4.535472E-02   0.0            0.0            0.0                           
            16      0      9.330276E-01   0.0            4.058349E-02   0.0            0.0            0.0                           
            17      0      9.977446E-01   0.0            3.672466E-02   0.0            0.0            0.0                           
            18      0      9.750016E-01   0.0            3.351833E-02   0.0            0.0            0.0                           
            19      0      9.547262E-01   0.0            3.032718E-02   0.0            0.0            0.0                           
            20      0      9.358434E-01   0.0            2.712557E-02   0.0            0.0            0.0                           
            21      0      9.994348E-01   0.0            1.839958E-02   0.0            0.0            0.0                           
            22      0      9.766956E-01   0.0            1.679330E-02   0.0            0.0            0.0                           
            23      0      9.564246E-01   0.0            1.519361E-02   0.0            0.0            0.0                           
            24      0      9.375387E-01   0.0            1.358696E-02   0.0            0.0            0.0                           
            25      0      1.000000E+00   0.0            5.626747E-10   0.0            0.0            0.0                           
            26      0      9.772620E-01   0.0            2.122909E-10   0.0            0.0            0.0                           
            27      0      9.569921E-01   0.0           -1.330876E-10   0.0            0.0            0.0                           
            28      0      9.381050E-01   0.0           -4.684615E-10   0.0            0.0            0.0                           
            29      0      9.994348E-01   0.0           -1.839958E-02   0.0            0.0            0.0                           
            30      0      9.766956E-01   0.0           -1.679329E-02   0.0            0.0            0.0                           
            31      0      9.564246E-01   0.0           -1.519361E-02   0.0            0.0            0.0                           
            32      0      9.375387E-01   0.0           -1.358696E-02   0.0            0.0            0.0                           
            33      0      9.977446E-01   0.0           -3.672466E-02   0.0            0.0            0.0                           
            34      0      9.750016E-01   0.0           -3.351833E-02   0.0            0.0            0.0                           
            35      0      9.547262E-01   0.0           -3.032718E-02   0.0            0.0            0.0                           
            36      0      9.358434E-01   0.0           -2.712557E-02   0.0            0.0            0.0                           
            37      0      9.949406E-01   0.0           -5.492388E-02   0.0            0.0            0.0                           
            38      0      9.721913E-01   0.0           -5.012247E-02   0.0            0.0            0.0                           
            39      0      9.519057E-01   0.0           -4.535472E-02   0.0            0.0            0.0                           
            40      0      9.330276E-01   0.0           -4.058349E-02   0.0            0.0            0.0                           
            41      0      9.910371E-01   0.0           -7.293779E-02   0.0            0.0            0.0                           
            42      0      9.682822E-01   0.0           -6.653246E-02   0.0            0.0            0.0                           
            43      0      9.479811E-01   0.0           -6.021316E-02   0.0            0.0            0.0                           
            44      0      9.291136E-01   0.0           -5.391906E-02   0.0            0.0            0.0                           
            45      0      9.860328E-01   0.0           -9.072367E-02   0.0            0.0            0.0                           
            46      0      9.632818E-01   0.0           -8.267042E-02   0.0            0.0            0.0                           
1     TRAPEZOIDAL (TRAPAX) ELEMENT PROBLEM                                  /    95 SUN SOLARIS NASTRAN    / MAY 17, 95 / PAGE    19
      NASTRAN TEST PROBLEM NO. T03-09-1A                                                                                            
0                                                                                                            SUBCASE  1             
      EIGENVALUE =  0.122293E+09    (CYCLIC FREQUENCY =  1.760034E+03 HZ)

                                         R E A L   E I G E N V E C T O R   N O .          4
     SECTOR-ID
      POINT-ID
       RING-ID  HARMONIC        T1             T2             T3             R1             R2             R3
            47      0      9.429893E-01   0.0           -7.484650E-02   0.0            0.0            0.0                           
            48      0      9.241526E-01   0.0           -6.709373E-02   0.0            0.0            0.0                           
            49      0      9.797873E-01   0.0           -1.082766E-01   0.0            0.0            0.0                           
            50      0      9.571791E-01   0.0           -9.849149E-02   0.0            0.0            0.0                           
            51      0      9.370077E-01   0.0           -8.924261E-02   0.0            0.0            0.0                           
            52      0      9.182331E-01   0.0           -8.006150E-02   0.0            0.0            0.0                           
1     TRAPEZOIDAL (TRAPAX) ELEMENT PROBLEM                                  /    95 SUN SOLARIS NASTRAN    / MAY 17, 95 / PAGE    20
      NASTRAN TEST PROBLEM NO. T03-09-1A                                                                                            
0                                                                                                            SUBCASE  1             
      EIGENVALUE =  0.156122E+09    (CYCLIC FREQUENCY =  1.988622E+03 HZ)

                                         R E A L   E I G E N V E C T O R   N O .          5
     SECTOR-ID
      POINT-ID
       RING-ID  HARMONIC        T1             T2             T3             R1             R2             R3
             1      0     -1.568144E-08   0.0           -1.519164E-09   0.0            0.0            0.0                           
             2      0     -1.531964E-08   0.0           -1.481126E-09   0.0            0.0            0.0                           
             3      0     -1.499679E-08   0.0           -1.449405E-09   0.0            0.0            0.0                           
             4      0     -1.469632E-08   0.0           -1.416125E-09   0.0            0.0            0.0                           
             5      0     -1.569770E-08   0.0           -1.239156E-09   0.0            0.0            0.0                           
             6      0     -1.533538E-08   0.0           -1.228649E-09   0.0            0.0            0.0                           
             7      0     -1.501229E-08   0.0           -1.219626E-09   0.0            0.0            0.0                           
             8      0     -1.471246E-08   0.0           -1.209010E-09   0.0            0.0            0.0                           
             9      0     -1.569460E-08   0.0           -9.572009E-10   0.0            0.0            0.0                           
            10      0     -1.533405E-08   0.0           -9.725728E-10   0.0            0.0            0.0                           
            11      0     -1.501249E-08   0.0           -9.873037E-10   0.0            0.0            0.0                           
            12      0     -1.471378E-08   0.0           -9.995348E-10   0.0            0.0            0.0                           
            13      0     -1.567445E-08   0.0           -6.732053E-10   0.0            0.0            0.0                           
            14      0     -1.531585E-08   0.0           -7.135781E-10   0.0            0.0            0.0                           
            15      0     -1.499621E-08   0.0           -7.526292E-10   0.0            0.0            0.0                           
            16      0     -1.469890E-08   0.0           -7.885649E-10   0.0            0.0            0.0                           
            17      0     -1.563735E-08   0.0           -3.877205E-10   0.0            0.0            0.0                           
            18      0     -1.528074E-08   0.0           -4.528601E-10   0.0            0.0            0.0                           
            19      0     -1.496293E-08   0.0           -5.165035E-10   0.0            0.0            0.0                           
            20      0     -1.466706E-08   0.0           -5.768028E-10   0.0            0.0            0.0                           
            21      0     -1.558309E-08   0.0           -1.015900E-10   0.0            0.0            0.0                           
            22      0     -1.522845E-08   0.0           -1.915408E-10   0.0            0.0            0.0                           
            23      0     -1.491236E-08   0.0           -2.799331E-10   0.0            0.0            0.0                           
            24      0     -1.461794E-08   0.0           -3.649656E-10   0.0            0.0            0.0                           
            25      0     -1.551140E-08   0.0            1.844362E-10   0.0            0.0            0.0                           
            26      0     -1.515870E-08   0.0            6.957605E-11   0.0            0.0            0.0                           
            27      0     -1.484429E-08   0.0           -4.364761E-11   0.0            0.0            0.0                           
            28      0     -1.455132E-08   0.0           -1.535962E-10   0.0            0.0            0.0                           
            29      0     -1.542218E-08   0.0            4.692164E-10   0.0            0.0            0.0                           
            30      0     -1.507138E-08   0.0            3.294343E-10   0.0            0.0            0.0                           
            31      0     -1.475861E-08   0.0            1.914152E-10   0.0            0.0            0.0                           
            32      0     -1.446714E-08   0.0            5.653992E-11   0.0            0.0            0.0                           
            33      0     -1.531548E-08   0.0            7.515814E-10   0.0            0.0            0.0                           
            34      0     -1.496654E-08   0.0            5.869720E-10   0.0            0.0            0.0                           
            35      0     -1.465535E-08   0.0            4.243305E-10   0.0            0.0            0.0                           
            36      0     -1.436542E-08   0.0            2.647082E-10   0.0            0.0            0.0                           
            37      0     -1.519139E-08   0.0            1.030687E-09   0.0            0.0            0.0                           
            38      0     -1.484424E-08   0.0            8.413613E-10   0.0            0.0            0.0                           
            39      0     -1.453456E-08   0.0            6.544011E-10   0.0            0.0            0.0                           
            40      0     -1.424623E-08   0.0            4.704485E-10   0.0            0.0            0.0                           
            41      0     -1.505014E-08   0.0            1.305534E-09   0.0            0.0            0.0                           
            42      0     -1.470478E-08   0.0            1.091451E-09   0.0            0.0            0.0                           
            43      0     -1.439654E-08   0.0            8.806773E-10   0.0            0.0            0.0                           
            44      0     -1.410992E-08   0.0            6.731854E-10   0.0            0.0            0.0                           
            45      0     -1.489179E-08   0.0            1.575346E-09   0.0            0.0            0.0                           
            46      0     -1.454832E-08   0.0            1.336019E-09   0.0            0.0            0.0                           
1     TRAPEZOIDAL (TRAPAX) ELEMENT PROBLEM                                  /    95 SUN SOLARIS NASTRAN    / MAY 17, 95 / PAGE    21
      NASTRAN TEST PROBLEM NO. T03-09-1A                                                                                            
0                                                                                                            SUBCASE  1             
      EIGENVALUE =  0.156122E+09    (CYCLIC FREQUENCY =  1.988622E+03 HZ)

                                         R E A L   E I G E N V E C T O R   N O .          5
     SECTOR-ID
      POINT-ID
       RING-ID  HARMONIC        T1             T2             T3             R1             R2             R3
            47      0     -1.424188E-08   0.0            1.102322E-09   0.0            0.0            0.0                           
            48      0     -1.395734E-08   0.0            8.724257E-10   0.0            0.0            0.0                           
            49      0     -1.471431E-08   0.0            1.839878E-09   0.0            0.0            0.0                           
            50      0     -1.437474E-08   0.0            1.574356E-09   0.0            0.0            0.0                           
            51      0     -1.407181E-08   0.0            1.319151E-09   0.0            0.0            0.0                           
            52      0     -1.378984E-08   0.0            1.067607E-09   0.0            0.0            0.0                           




                                        * * * END OF JOB * * *
1
 JOB TITLE =  TRAPEZOIDAL (TRAPAX) ELEMENT PROBLEM                               
 DATE:  5/17/95
 END TIME: 16:44: 2
 TOTAL WALL CLOCK TIME      3 SEC.
 
