





                                  ****
                                *      *
                               *        *
                               *  N A S T R A N
                               *        *
                                *      *
                                  ****


                             SUN COMPUTER SYSTEMS    
                                SOLARIS VERSION

                          SYSTEM RELEASE -  1995 ED.

                                DISTRIBUTED BY

         COMPUTER SOFTWARE MANAGEMENT AND INFORMATION CENTER (COSMIC)
                 UNIVERSITY OF GEORGIA, ATHENS, GEORGIA 30602
                 PHONE: (706)542-3265      FAX: (706)542-4807
1                                                                           /    95 SUN SOLARIS NASTRAN    / MAY 17, 95 / PAGE     2
                                                                                                                                    
0                                                                                                                                   
                                                                                                         
                                                                                                         
                         INSTALLATION CENTER USER INFORMATION GIVEN IN THIS SECTION                      
                                                                                                         
                                     *********************************************                       
                                     *                                           *                       
                                     *  PLEASE READ THE COMMENT IN DEMO PROBLEM  *                       
                                     *  D01002A ABOUT SYSTEM TIMING CONSTANTS    *                       
                                     *                                           *                       
                                     *********************************************                       
                                                                                                         
                         ===X=    TOP OF PAGE REQUEST IF 'X' IS REPLACED BY '='                          
                                                                                                         
1                                                                           /    95 SUN SOLARIS NASTRAN    / MAY 17, 95 / PAGE     3
                                                                                                                                    
0                                                                                                                                   
0*** USER INFORMATION MESSAGE 225, GINO TIME CONSTANTS ARE BEING COMPUTED
     (SEE NASINFO FILE FOR ELIMINATION OF THESE COMPUTATIONS)
1                                                                           /    95 SUN SOLARIS NASTRAN    / MAY 17, 95 / PAGE     4
                                                                                                                                    
0        N A S T R A N    E X E C U T I V E    C O N T R O L    D E C K    E C H O                                                  
0                                                                                                                                   
                                                                                                                                    
                                                                                                                                    
     ID    T03101A,NASTRAN                                                           
     SOL   3                                                                         
     TIME  20                                                                        
     APP   DISP                                                                      
     CEND                                                                            


0*** USER INFORMATION MESSAGE, TURN DIAG 48 ON FOR NASTRAN RELEASE NEWS, DIAG DEFINITION, NEW DMAP
         MODULES AND NEW BULKDATA CARDS INFORMATION
1     TRAPEZOIDAL (TRAPRG) ELEMENT PROBLEM                                  /    95 SUN SOLARIS NASTRAN    / MAY 17, 95 / PAGE     5
      NASTRAN TEST PROBLEM NO. T03-10-1A                                                                                            
0                                                                                                                                   
0                                        C A S E    C O N T R O L   D E C K   E C H O                                               
                 CARD                                                                                                               
                 COUNT                                                                                                              
                  1      TITLE    = TRAPEZOIDAL (TRAPRG) ELEMENT PROBLEM                                 
                  2      SUBTITLE = NASTRAN TEST PROBLEM NO. T03-10-1A                                   
                  3        METHOD = 1                                                                    
                  4      SUBCASE  1                                                                      
                  5        DISP   = ALL                                                                  
                  6        MODES  = 5                                                                    
                  7      SUBCASE  6                                                                      
                  8        DISP   = NONE                                                                 
                  9      BEGIN BULK                                                                      


                        (NO. OF UNSORTED BULK DATA CARDS READ =    93, INCLUDING   0 COMMENT CARDS)
0*** USER INFORMATION MESSAGE 207, BULK DATA DECK IS NOT SORTED. NASTRAN WILL RE-ORDER THE INPUT DECK.
1     TRAPEZOIDAL (TRAPRG) ELEMENT PROBLEM                                  /    95 SUN SOLARIS NASTRAN    / MAY 17, 95 / PAGE     6
      NASTRAN TEST PROBLEM NO. T03-10-1A                                                                                            
0                                                                                                                                   
0                                                 S O R T E D   B U L K    D A T A    E C H O                                       
                     CARD                                                                                                           
                     COUNT        ---1--- +++2+++ ---3--- +++4+++ ---5--- +++6+++ ---7--- +++8+++ ---9--- +++10+++                  
                    1-        CTRAPRG 1       1       2       6       5               1                       
                    2-        CTRAPRG 2       2       3       7       6               1                       
                    3-        CTRAPRG 3       3       4       8       7               1                       
                    4-        CTRAPRG 5       5       6       10      9               1                       
                    5-        CTRAPRG 6       6       7       11      10              1                       
                    6-        CTRAPRG 7       7       8       12      11              1                       
                    7-        CTRAPRG 9       9       10      14      13              1                       
                    8-        CTRAPRG 10      10      11      15      14              1                       
                    9-        CTRAPRG 11      11      12      16      15              1                       
                   10-        CTRAPRG 13      13      14      18      17              1                       
                   11-        CTRAPRG 14      14      15      19      18              1                       
                   12-        CTRAPRG 15      15      16      20      19              1                       
                   13-        CTRAPRG 17      17      18      22      21              1                       
                   14-        CTRAPRG 18      18      19      23      22              1                       
                   15-        CTRAPRG 19      19      20      24      23              1                       
                   16-        CTRAPRG 21      21      22      26      25              1                       
                   17-        CTRAPRG 22      22      23      27      26              1                       
                   18-        CTRAPRG 23      23      24      28      27              1                       
                   19-        CTRAPRG 25      25      26      30      29              1                       
                   20-        CTRAPRG 26      26      27      31      30              1                       
                   21-        CTRAPRG 27      27      28      32      31              1                       
                   22-        CTRAPRG 29      29      30      34      33              1                       
                   23-        CTRAPRG 30      30      31      35      34              1                       
                   24-        CTRAPRG 31      31      32      36      35              1                       
                   25-        CTRAPRG 33      33      34      38      37              1                       
                   26-        CTRAPRG 34      34      35      39      38              1                       
                   27-        CTRAPRG 35      35      36      40      39              1                       
                   28-        CTRAPRG 37      37      38      42      41              1                       
                   29-        CTRAPRG 38      38      39      43      42              1                       
                   30-        CTRAPRG 39      39      40      44      43              1                       
                   31-        CTRAPRG 41      41      42      46      45              1                       
                   32-        CTRAPRG 42      42      43      47      46              1                       
                   33-        CTRAPRG 43      43      44      48      47              1                       
                   34-        CTRAPRG 45      45      46      50      49              1                       
                   35-        CTRAPRG 46      46      47      51      50              1                       
                   36-        CTRAPRG 47      47      48      52      51              1                       
                   37-        EIGR    1       INV     0.      5000.   10      10              1.-3    +E      
                   38-        +E      MAX                                                                     
                   39-        GRDSET                                                  2456                    
                   40-        GRID    1               5.0000          2.0000                                  
                   41-        GRID    2               5.4167          2.0000                                  
                   42-        GRID    3               5.8333          2.0000                                  
                   43-        GRID    4               6.2500          2.0000                                  
                   44-        GRID    5               5.0000          2.2917                                  
                   45-        GRID    6               5.4167          2.2917                                  
                   46-        GRID    7               5.8333          2.2917                                  
                   47-        GRID    8               6.2500          2.2917                                  
1     TRAPEZOIDAL (TRAPRG) ELEMENT PROBLEM                                  /    95 SUN SOLARIS NASTRAN    / MAY 17, 95 / PAGE     7
      NASTRAN TEST PROBLEM NO. T03-10-1A                                                                                            

                                                                                                                                    

                                                  S O R T E D   B U L K    D A T A    E C H O                                       
                     CARD                                                                                                           
                     COUNT        ---1--- +++2+++ ---3--- +++4+++ ---5--- +++6+++ ---7--- +++8+++ ---9--- +++10+++                  
                   48-        GRID    9               5.0000          2.5833                                  
                   49-        GRID    10              5.4167          2.5833                                  
                   50-        GRID    11              5.8333          2.5833                                  
                   51-        GRID    12              6.2500          2.5833                                  
                   52-        GRID    13              5.0000          2.8750                                  
                   53-        GRID    14              5.4167          2.8750                                  
                   54-        GRID    15              5.8333          2.8750                                  
                   55-        GRID    16              6.2500          2.8750                                  
                   56-        GRID    17              5.0000          3.1667                                  
                   57-        GRID    18              5.4167          3.1667                                  
                   58-        GRID    19              5.8333          3.1667                                  
                   59-        GRID    20              6.2500          3.1667                                  
                   60-        GRID    21              5.0000          3.4583                                  
                   61-        GRID    22              5.4167          3.4583                                  
                   62-        GRID    23              5.8333          3.4583                                  
                   63-        GRID    24              6.2500          3.4583                                  
                   64-        GRID    25              5.0000          3.7500                                  
                   65-        GRID    26              5.4167          3.7500                                  
                   66-        GRID    27              5.8333          3.7500                                  
                   67-        GRID    28              6.2500          3.7500                                  
                   68-        GRID    29              5.0000          4.0417                                  
                   69-        GRID    30              5.4167          4.0417                                  
                   70-        GRID    31              5.8333          4.0417                                  
                   71-        GRID    32              6.2500          4.0417                                  
                   72-        GRID    33              5.0000          4.3333                                  
                   73-        GRID    34              5.4167          4.3333                                  
                   74-        GRID    35              5.8333          4.3333                                  
                   75-        GRID    36              6.2500          4.3333                                  
                   76-        GRID    37              5.0000          4.6250                                  
                   77-        GRID    38              5.4167          4.6250                                  
                   78-        GRID    39              5.8333          4.6250                                  
                   79-        GRID    40              6.2500          4.6250                                  
                   80-        GRID    41              5.0000          4.9167                                  
                   81-        GRID    42              5.4167          4.9167                                  
                   82-        GRID    43              5.8333          4.9167                                  
                   83-        GRID    44              6.2500          4.9167                                  
                   84-        GRID    45              5.0000          5.2083                                  
                   85-        GRID    46              5.4167          5.2083                                  
                   86-        GRID    47              5.8333          5.2083                                  
                   87-        GRID    48              6.2500          5.2083                                  
                   88-        GRID    49              5.0000          5.5000                                  
                   89-        GRID    50              5.4167          5.5000                                  
                   90-        GRID    51              5.8333          5.5000                                  
                   91-        GRID    52              6.2500          5.5000                                  
                   92-        MAT1    1       3.+7            .3      7.8-3                                   
                   93-        PARAM   COUPMASS1                                                               
                              ENDDATA
1     TRAPEZOIDAL (TRAPRG) ELEMENT PROBLEM                                  /    95 SUN SOLARIS NASTRAN    / MAY 17, 95 / PAGE     8
      NASTRAN TEST PROBLEM NO. T03-10-1A                                                                                            
0                                                                                                                                   
0*** USER INFORMATION MESSAGES FROM RESEQUENCING PROCESSOR - BANDIT     (CRI= 1,  MTH= 3,  MPC= 0,  DEP=-1,  PCH=-1)

                               BEFORE RESEQUENCING - - -
                                        BANDWIDTH            6
                                        PROFILE            283
                                        MAX WAVEFRONT        6
                                        AVG WAVEFRONT    5.442
                                        RMS WAVEFRONT    5.538
                                        RMS BANDWIDTH    5.563

                               AFTER RESEQUENCING BY GIBBS-POOLE-STOCKMEYER (GPS) ALGORITHM - - -
                                        BANDWIDTH            6
                                        PROFILE            283
                                        MAX WAVEFRONT        6
                                        AVG WAVEFRONT    5.442
                                        RMS WAVEFRONT    5.538
                                        RMS BANDWIDTH    5.563


                                                     *** BANDIT SUMMARY ***

                                                                        BEFORE     AFTER
                                        BANDWIDTH (B)                        6         6
                                        PROFILE (P)                        283       283
                                        MAXIMUM WAVEFRONT (C-MAX)            6         6
                                        AVERAGE WAVEFRONT (C-AVG)        5.442     5.442
                                        RMS WAVEFRONT (C-RMS)            5.538     5.538
                                        RMS BANDWITCH (B-RMS)            5.563     5.563
                                        NUMBER OF GRID POINTS (N)                     52
                                        NUMBER OF ELEMENTS (NON-RIGID)                36
                                        NUMBER OF RIGID ELEMENTS PROCESSED*            0
                                        NUMBER OF MPC  EQUATIONS PROCESSED*            0
                                        NUMBER OF COMPONENTS                           1
                                        MAXIMUM NODAL DEGREE                           8
                                        MINIMUM NODAL DEGREE                           3
                                        NUMBER OF UNIQUE EDGES                       159
                                        MATRIX DENSITY, PERCENT                   13.683
                                        NUMBER OF POINTS OF ZERO DEGREE                0
                                        BANDIT OPEN CORE                         1998969
                                        CRITERION*                         RMS WAVEFRONT
                                        METHOD USED*                                 GPS

                               (* THESE DEFAULT OPTIONS CAN BE OVERRIDDEN BY THE NASTRAN CARD)


                               BANDIT FINDS GRID POINT RE-SEQUENCING NOT NECESSARY
0         **NO ERRORS FOUND - EXECUTE NASTRAN PROGRAM**
0*** USER INFORMATION MESSAGE 238, TURN DIAG 38 ON FOR ADDITIONAL ELEMENT PROCESSING INFORMATION

0*** USER INFORMATION MESSAGE 3113,
     EMG MODULE PROCESSING DOUBLE PRECISION TRAPRG   ELEMENTS (ELEMENT TYPE  37) STARTING WITH ID        1
                        3 ROOTS BELOW   2.467401E+08
                        2 ROOTS BELOW   1.206943E+08
                        3 ROOTS BELOW   1.222931E+08
                        1 ROOTS BELOW   1.088098E+08
                        4 ROOTS BELOW   1.154333E+09
1     TRAPEZOIDAL (TRAPRG) ELEMENT PROBLEM                                  /    95 SUN SOLARIS NASTRAN    / MAY 17, 95 / PAGE     9
      NASTRAN TEST PROBLEM NO. T03-10-1A                                                                                            
0                                                                                                                                   
 
 
                              E I G E N V A L U E   A N A L Y S I S   S U M M A R Y     (INVERSE POWER METHOD)
0
0                                       NUMBER OF EIGENVALUES EXTRACTED  . . . . . .         4
0                                       NUMBER OF STARTING POINTS USED . . . . . . .         1
0                                       NUMBER OF STARTING POINT MOVES . . . . . . .         0
0                                       NUMBER OF TRIANGULAR DECOMPOSITIONS  . . . .         5
0                                       TOTAL NUMBER OF VECTOR ITERATIONS  . . . . .        26

0                                       REASON FOR TERMINATION . . . . . . . . . . .         7*

0                                       LARGEST OFF-DIAGONAL MODAL MASS TERM . . . .  0.61E-08
0                                                                              . . .         4
                                                  MODE PAIR . . . . . . . . . .
                                                                               . . .         1
0                                       NUMBER OF OFF-DIAGONAL MODAL MASS
                                             TERMS FAILING CRITERION . . . . . . . .         0

0                                       (* 1 OR MORE ROOT OUTSIDE FR.RANGE.
                                         SEE NASTRAN U.M. VOL II, SECTION 2.3.3)
1     TRAPEZOIDAL (TRAPRG) ELEMENT PROBLEM                                  /    95 SUN SOLARIS NASTRAN    / MAY 17, 95 / PAGE    10
      NASTRAN TEST PROBLEM NO. T03-10-1A                                                                                            
0                                                                                                                                   
 
                                              R E A L   E I G E N V A L U E S

   MODE    EXTRACTION       EIGENVALUE            RADIAN              CYCLIC           GENERALIZED         GENERALIZED
    NO.       ORDER                              FREQUENCY           FREQUENCY            MASS              STIFFNESS


                                     ****************************************************************
                                     *                                                              *
                                     *
+                                             NASTRAN INFORMATION MESSAGE 3307, POTENTIALLY         *
                                     *         3 EIGENVALUE(S) AT LOW FREQ. END NOT FOUND           *
                                     *                                                              *
                                     *        (THIS MESSAGE CAN BE SUPPRESSED BY DIAG 37)           *
                                     ****************************************************************

        1         3        6.645746E-01        8.152145E-01        1.297454E-01        1.206077E+00        8.015279E-01             
        2         2        1.088195E+08        1.043166E+04        1.660250E+03        4.238784E-01        4.612622E+07             
        3         1        1.222931E+08        1.105862E+04        1.760034E+03        1.115104E+00        1.363694E+08             
        4         4        1.154310E+09        3.397514E+04        5.407312E+03        3.974966E-01        4.588343E+08             
1     TRAPEZOIDAL (TRAPRG) ELEMENT PROBLEM                                  /    95 SUN SOLARIS NASTRAN    / MAY 17, 95 / PAGE    11
      NASTRAN TEST PROBLEM NO. T03-10-1A                                                                                            
0                                                                                                            SUBCASE  1             
      EIGENVALUE =  0.664575E+00    (CYCLIC FREQUENCY =  1.297454E-01 HZ)

                                         R E A L   E I G E N V E C T O R   N O .          1
 
      POINT ID.   TYPE          T1             T2             T3             R1             R2             R3
             1      G     -3.731007E-07   0.0            1.000000E+00   0.0            0.0            0.0                           
             2      G     -3.608073E-07   0.0            9.999999E-01   0.0            0.0            0.0                           
             3      G     -3.536889E-07   0.0            9.999997E-01   0.0            0.0            0.0                           
             4      G     -3.505078E-07   0.0            9.999995E-01   0.0            0.0            0.0                           
             5      G     -2.436614E-07   0.0            1.000000E+00   0.0            0.0            0.0                           
             6      G     -2.329479E-07   0.0            9.999999E-01   0.0            0.0            0.0                           
             7      G     -2.279446E-07   0.0            9.999997E-01   0.0            0.0            0.0                           
             8      G     -2.279248E-07   0.0            9.999995E-01   0.0            0.0            0.0                           
             9      G     -1.085947E-07   0.0            1.000000E+00   0.0            0.0            0.0                           
            10      G     -9.445252E-08   0.0            9.999999E-01   0.0            0.0            0.0                           
            11      G     -9.210216E-08   0.0            9.999998E-01   0.0            0.0            0.0                           
            12      G     -1.006028E-07   0.0            9.999995E-01   0.0            0.0            0.0                           
            13      G      1.979394E-08   0.0            9.999999E-01   0.0            0.0            0.0                           
            14      G      3.788428E-08   0.0            9.999999E-01   0.0            0.0            0.0                           
            15      G      3.753502E-08   0.0            9.999998E-01   0.0            0.0            0.0                           
            16      G      2.008723E-08   0.0            9.999996E-01   0.0            0.0            0.0                           
            17      G      1.256460E-07   0.0            9.999999E-01   0.0            0.0            0.0                           
            18      G      1.474430E-07   0.0            9.999998E-01   0.0            0.0            0.0                           
            19      G      1.447778E-07   0.0            9.999998E-01   0.0            0.0            0.0                           
            20      G      1.194146E-07   0.0            9.999996E-01   0.0            0.0            0.0                           
            21      G      1.953679E-07   0.0            9.999999E-01   0.0            0.0            0.0                           
            22      G      2.197809E-07   0.0            9.999998E-01   0.0            0.0            0.0                           
            23      G      2.155497E-07   0.0            9.999998E-01   0.0            0.0            0.0                           
            24      G      1.847361E-07   0.0            9.999997E-01   0.0            0.0            0.0                           
            25      G      2.198151E-07   0.0            9.999998E-01   0.0            0.0            0.0                           
            26      G      2.451703E-07   0.0            9.999998E-01   0.0            0.0            0.0                           
            27      G      2.403483E-07   0.0            9.999998E-01   0.0            0.0            0.0                           
            28      G      2.075387E-07   0.0            9.999998E-01   0.0            0.0            0.0                           
            29      G      1.956524E-07   0.0            9.999997E-01   0.0            0.0            0.0                           
            30      G      2.200590E-07   0.0            9.999998E-01   0.0            0.0            0.0                           
            31      G      2.157189E-07   0.0            9.999998E-01   0.0            0.0            0.0                           
            32      G      1.847365E-07   0.0            9.999999E-01   0.0            0.0            0.0                           
            33      G      1.261488E-07   0.0            9.999996E-01   0.0            0.0            0.0                           
            34      G      1.478776E-07   0.0            9.999998E-01   0.0            0.0            0.0                           
            35      G      1.449939E-07   0.0            9.999998E-01   0.0            0.0            0.0                           
            36      G      1.193449E-07   0.0            9.999999E-01   0.0            0.0            0.0                           
            37      G      2.048470E-08   0.0            9.999995E-01   0.0            0.0            0.0                           
            38      G      3.843126E-08   0.0            9.999997E-01   0.0            0.0            0.0                           
            39      G      3.772387E-08   0.0            9.999998E-01   0.0            0.0            0.0                           
            40      G      1.993060E-08   0.0            9.999999E-01   0.0            0.0            0.0                           
            41      G     -1.076474E-07   0.0            9.999995E-01   0.0            0.0            0.0                           
            42      G     -9.371047E-08   0.0            9.999997E-01   0.0            0.0            0.0                           
            43      G     -9.179033E-08   0.0            9.999998E-01   0.0            0.0            0.0                           
            44      G     -1.006045E-07   0.0            9.999999E-01   0.0            0.0            0.0                           
            45      G     -2.424443E-07   0.0            9.999995E-01   0.0            0.0            0.0                           
            46      G     -2.319018E-07   0.0            9.999997E-01   0.0            0.0            0.0                           
1     TRAPEZOIDAL (TRAPRG) ELEMENT PROBLEM                                  /    95 SUN SOLARIS NASTRAN    / MAY 17, 95 / PAGE    12
      NASTRAN TEST PROBLEM NO. T03-10-1A                                                                                            
0                                                                                                            SUBCASE  1             
      EIGENVALUE =  0.664575E+00    (CYCLIC FREQUENCY =  1.297454E-01 HZ)

                                         R E A L   E I G E N V E C T O R   N O .          1
 
      POINT ID.   TYPE          T1             T2             T3             R1             R2             R3
            47      G     -2.272404E-07   0.0            9.999999E-01   0.0            0.0            0.0                           
            48      G     -2.274358E-07   0.0            9.999999E-01   0.0            0.0            0.0                           
            49      G     -3.717489E-07   0.0            9.999995E-01   0.0            0.0            0.0                           
            50      G     -3.595093E-07   0.0            9.999997E-01   0.0            0.0            0.0                           
            51      G     -3.525300E-07   0.0            9.999999E-01   0.0            0.0            0.0                           
            52      G     -3.494642E-07   0.0            1.000000E+00   0.0            0.0            0.0                           
1     TRAPEZOIDAL (TRAPRG) ELEMENT PROBLEM                                  /    95 SUN SOLARIS NASTRAN    / MAY 17, 95 / PAGE    13
      NASTRAN TEST PROBLEM NO. T03-10-1A                                                                                            
0                                                                                                            SUBCASE  1             
      EIGENVALUE =  0.108819E+09    (CYCLIC FREQUENCY =  1.660250E+03 HZ)

                                         R E A L   E I G E N V E C T O R   N O .          2
 
      POINT ID.   TYPE          T1             T2             T3             R1             R2             R3
             1      G      1.000000E+00   0.0           -3.316140E-01   0.0            0.0            0.0                           
             2      G      9.770127E-01   0.0           -9.639819E-02   0.0            0.0            0.0                           
             3      G      9.564208E-01   0.0            1.346793E-01   0.0            0.0            0.0                           
             4      G      9.372795E-01   0.0            3.603593E-01   0.0            0.0            0.0                           
             5      G      8.332952E-01   0.0           -3.476152E-01   0.0            0.0            0.0                           
             6      G      8.138074E-01   0.0           -1.110196E-01   0.0            0.0            0.0                           
             7      G      7.965901E-01   0.0            1.212891E-01   0.0            0.0            0.0                           
             8      G      7.807818E-01   0.0            3.480202E-01   0.0            0.0            0.0                           
             9      G      6.663585E-01   0.0           -3.601706E-01   0.0            0.0            0.0                           
            10      G      6.506548E-01   0.0           -1.229185E-01   0.0            0.0            0.0                           
            11      G      6.368862E-01   0.0            1.102487E-01   0.0            0.0            0.0                           
            12      G      6.243801E-01   0.0            3.374380E-01   0.0            0.0            0.0                           
            13      G      4.994788E-01   0.0           -3.696304E-01   0.0            0.0            0.0                           
            14      G      4.876347E-01   0.0           -1.321264E-01   0.0            0.0            0.0                           
            15      G      4.773359E-01   0.0            1.015650E-01   0.0            0.0            0.0                           
            16      G      4.680508E-01   0.0            3.289253E-01   0.0            0.0            0.0                           
            17      G      3.328038E-01   0.0           -3.762262E-01   0.0            0.0            0.0                           
            18      G      3.248783E-01   0.0           -1.386701E-01   0.0            0.0            0.0                           
            19      G      3.180284E-01   0.0            9.530409E-02   0.0            0.0            0.0                           
            20      G      3.118874E-01   0.0            3.226989E-01   0.0            0.0            0.0                           
            21      G      1.663756E-01   0.0           -3.801198E-01   0.0            0.0            0.0                           
            22      G      1.624033E-01   0.0           -1.425803E-01   0.0            0.0            0.0                           
            23      G      1.589826E-01   0.0            9.152486E-02   0.0            0.0            0.0                           
            24      G      1.559264E-01   0.0            3.189052E-01   0.0            0.0            0.0                           
            25      G     -6.992828E-15   0.0           -3.814080E-01   0.0            0.0            0.0                           
            26      G     -7.417673E-15   0.0           -1.438816E-01   0.0            0.0            0.0                           
            27      G     -7.023028E-15   0.0            9.026057E-02   0.0            0.0            0.0                           
            28      G     -3.385625E-15   0.0            3.176302E-01   0.0            0.0            0.0                           
            29      G     -1.663756E-01   0.0           -3.801198E-01   0.0            0.0            0.0                           
            30      G     -1.624033E-01   0.0           -1.425803E-01   0.0            0.0            0.0                           
            31      G     -1.589826E-01   0.0            9.152486E-02   0.0            0.0            0.0                           
            32      G     -1.559264E-01   0.0            3.189052E-01   0.0            0.0            0.0                           
            33      G     -3.328038E-01   0.0           -3.762262E-01   0.0            0.0            0.0                           
            34      G     -3.248783E-01   0.0           -1.386701E-01   0.0            0.0            0.0                           
            35      G     -3.180284E-01   0.0            9.530409E-02   0.0            0.0            0.0                           
            36      G     -3.118874E-01   0.0            3.226989E-01   0.0            0.0            0.0                           
            37      G     -4.994788E-01   0.0           -3.696304E-01   0.0            0.0            0.0                           
            38      G     -4.876347E-01   0.0           -1.321264E-01   0.0            0.0            0.0                           
            39      G     -4.773359E-01   0.0            1.015650E-01   0.0            0.0            0.0                           
            40      G     -4.680508E-01   0.0            3.289253E-01   0.0            0.0            0.0                           
            41      G     -6.663585E-01   0.0           -3.601706E-01   0.0            0.0            0.0                           
            42      G     -6.506548E-01   0.0           -1.229185E-01   0.0            0.0            0.0                           
            43      G     -6.368862E-01   0.0            1.102487E-01   0.0            0.0            0.0                           
            44      G     -6.243801E-01   0.0            3.374380E-01   0.0            0.0            0.0                           
            45      G     -8.332952E-01   0.0           -3.476152E-01   0.0            0.0            0.0                           
            46      G     -8.138074E-01   0.0           -1.110196E-01   0.0            0.0            0.0                           
1     TRAPEZOIDAL (TRAPRG) ELEMENT PROBLEM                                  /    95 SUN SOLARIS NASTRAN    / MAY 17, 95 / PAGE    14
      NASTRAN TEST PROBLEM NO. T03-10-1A                                                                                            
0                                                                                                            SUBCASE  1             
      EIGENVALUE =  0.108819E+09    (CYCLIC FREQUENCY =  1.660250E+03 HZ)

                                         R E A L   E I G E N V E C T O R   N O .          2
 
      POINT ID.   TYPE          T1             T2             T3             R1             R2             R3
            47      G     -7.965901E-01   0.0            1.212891E-01   0.0            0.0            0.0                           
            48      G     -7.807818E-01   0.0            3.480202E-01   0.0            0.0            0.0                           
            49      G     -1.000000E+00   0.0           -3.316140E-01   0.0            0.0            0.0                           
            50      G     -9.770127E-01   0.0           -9.639819E-02   0.0            0.0            0.0                           
            51      G     -9.564208E-01   0.0            1.346793E-01   0.0            0.0            0.0                           
            52      G     -9.372795E-01   0.0            3.603593E-01   0.0            0.0            0.0                           
1     TRAPEZOIDAL (TRAPRG) ELEMENT PROBLEM                                  /    95 SUN SOLARIS NASTRAN    / MAY 17, 95 / PAGE    15
      NASTRAN TEST PROBLEM NO. T03-10-1A                                                                                            
0                                                                                                            SUBCASE  1             
      EIGENVALUE =  0.122293E+09    (CYCLIC FREQUENCY =  1.760034E+03 HZ)

                                         R E A L   E I G E N V E C T O R   N O .          3
 
      POINT ID.   TYPE          T1             T2             T3             R1             R2             R3
             1      G      9.797873E-01   0.0            1.082766E-01   0.0            0.0            0.0                           
             2      G      9.571791E-01   0.0            9.849149E-02   0.0            0.0            0.0                           
             3      G      9.370077E-01   0.0            8.924261E-02   0.0            0.0            0.0                           
             4      G      9.182331E-01   0.0            8.006150E-02   0.0            0.0            0.0                           
             5      G      9.860328E-01   0.0            9.072368E-02   0.0            0.0            0.0                           
             6      G      9.632818E-01   0.0            8.267042E-02   0.0            0.0            0.0                           
             7      G      9.429893E-01   0.0            7.484650E-02   0.0            0.0            0.0                           
             8      G      9.241526E-01   0.0            6.709373E-02   0.0            0.0            0.0                           
             9      G      9.910371E-01   0.0            7.293779E-02   0.0            0.0            0.0                           
            10      G      9.682822E-01   0.0            6.653246E-02   0.0            0.0            0.0                           
            11      G      9.479811E-01   0.0            6.021316E-02   0.0            0.0            0.0                           
            12      G      9.291136E-01   0.0            5.391906E-02   0.0            0.0            0.0                           
            13      G      9.949406E-01   0.0            5.492388E-02   0.0            0.0            0.0                           
            14      G      9.721913E-01   0.0            5.012247E-02   0.0            0.0            0.0                           
            15      G      9.519057E-01   0.0            4.535472E-02   0.0            0.0            0.0                           
            16      G      9.330276E-01   0.0            4.058349E-02   0.0            0.0            0.0                           
            17      G      9.977446E-01   0.0            3.672466E-02   0.0            0.0            0.0                           
            18      G      9.750016E-01   0.0            3.351833E-02   0.0            0.0            0.0                           
            19      G      9.547262E-01   0.0            3.032718E-02   0.0            0.0            0.0                           
            20      G      9.358434E-01   0.0            2.712557E-02   0.0            0.0            0.0                           
            21      G      9.994348E-01   0.0            1.839958E-02   0.0            0.0            0.0                           
            22      G      9.766956E-01   0.0            1.679330E-02   0.0            0.0            0.0                           
            23      G      9.564246E-01   0.0            1.519361E-02   0.0            0.0            0.0                           
            24      G      9.375387E-01   0.0            1.358696E-02   0.0            0.0            0.0                           
            25      G      1.000000E+00   0.0            5.585439E-13   0.0            0.0            0.0                           
            26      G      9.772620E-01   0.0            2.078196E-13   0.0            0.0            0.0                           
            27      G      9.569921E-01   0.0           -1.268177E-13   0.0            0.0            0.0                           
            28      G      9.381050E-01   0.0           -4.408882E-13   0.0            0.0            0.0                           
            29      G      9.994348E-01   0.0           -1.839958E-02   0.0            0.0            0.0                           
            30      G      9.766956E-01   0.0           -1.679330E-02   0.0            0.0            0.0                           
            31      G      9.564246E-01   0.0           -1.519361E-02   0.0            0.0            0.0                           
            32      G      9.375387E-01   0.0           -1.358696E-02   0.0            0.0            0.0                           
            33      G      9.977446E-01   0.0           -3.672466E-02   0.0            0.0            0.0                           
            34      G      9.750016E-01   0.0           -3.351833E-02   0.0            0.0            0.0                           
            35      G      9.547262E-01   0.0           -3.032718E-02   0.0            0.0            0.0                           
            36      G      9.358434E-01   0.0           -2.712557E-02   0.0            0.0            0.0                           
            37      G      9.949406E-01   0.0           -5.492388E-02   0.0            0.0            0.0                           
            38      G      9.721913E-01   0.0           -5.012247E-02   0.0            0.0            0.0                           
            39      G      9.519057E-01   0.0           -4.535472E-02   0.0            0.0            0.0                           
            40      G      9.330276E-01   0.0           -4.058349E-02   0.0            0.0            0.0                           
            41      G      9.910371E-01   0.0           -7.293779E-02   0.0            0.0            0.0                           
            42      G      9.682822E-01   0.0           -6.653246E-02   0.0            0.0            0.0                           
            43      G      9.479811E-01   0.0           -6.021316E-02   0.0            0.0            0.0                           
            44      G      9.291136E-01   0.0           -5.391906E-02   0.0            0.0            0.0                           
            45      G      9.860328E-01   0.0           -9.072368E-02   0.0            0.0            0.0                           
            46      G      9.632818E-01   0.0           -8.267042E-02   0.0            0.0            0.0                           
1     TRAPEZOIDAL (TRAPRG) ELEMENT PROBLEM                                  /    95 SUN SOLARIS NASTRAN    / MAY 17, 95 / PAGE    16
      NASTRAN TEST PROBLEM NO. T03-10-1A                                                                                            
0                                                                                                            SUBCASE  1             
      EIGENVALUE =  0.122293E+09    (CYCLIC FREQUENCY =  1.760034E+03 HZ)

                                         R E A L   E I G E N V E C T O R   N O .          3
 
      POINT ID.   TYPE          T1             T2             T3             R1             R2             R3
            47      G      9.429893E-01   0.0           -7.484650E-02   0.0            0.0            0.0                           
            48      G      9.241526E-01   0.0           -6.709373E-02   0.0            0.0            0.0                           
            49      G      9.797873E-01   0.0           -1.082766E-01   0.0            0.0            0.0                           
            50      G      9.571791E-01   0.0           -9.849149E-02   0.0            0.0            0.0                           
            51      G      9.370077E-01   0.0           -8.924261E-02   0.0            0.0            0.0                           
            52      G      9.182331E-01   0.0           -8.006150E-02   0.0            0.0            0.0                           
1     TRAPEZOIDAL (TRAPRG) ELEMENT PROBLEM                                  /    95 SUN SOLARIS NASTRAN    / MAY 17, 95 / PAGE    17
      NASTRAN TEST PROBLEM NO. T03-10-1A                                                                                            
0                                                                                                            SUBCASE  1             
      EIGENVALUE =  0.115431E+10    (CYCLIC FREQUENCY =  5.407312E+03 HZ)

                                         R E A L   E I G E N V E C T O R   N O .          4
 
      POINT ID.   TYPE          T1             T2             T3             R1             R2             R3
             1      G      1.000000E+00   0.0           -7.127498E-01   0.0            0.0            0.0                           
             2      G      9.669811E-01   0.0           -2.426051E-01   0.0            0.0            0.0                           
             3      G      9.478030E-01   0.0            1.927090E-01   0.0            0.0            0.0                           
             4      G      9.393123E-01   0.0            6.464145E-01   0.0            0.0            0.0                           
             5      G      6.519955E-01   0.0           -7.126544E-01   0.0            0.0            0.0                           
             6      G      6.235925E-01   0.0           -2.479930E-01   0.0            0.0            0.0                           
             7      G      6.107779E-01   0.0            1.737844E-01   0.0            0.0            0.0                           
             8      G      6.111974E-01   0.0            6.221361E-01   0.0            0.0            0.0                           
             9      G      2.892010E-01   0.0           -6.719176E-01   0.0            0.0            0.0                           
            10      G      2.518869E-01   0.0           -2.341190E-01   0.0            0.0            0.0                           
            11      G      2.467034E-01   0.0            1.494932E-01   0.0            0.0            0.0                           
            12      G      2.703909E-01   0.0            5.720758E-01   0.0            0.0            0.0                           
            13      G     -5.528571E-02   0.0           -5.749021E-01   0.0            0.0            0.0                           
            14      G     -1.031466E-01   0.0           -1.996000E-01   0.0            0.0            0.0                           
            15      G     -1.009851E-01   0.0            1.192812E-01   0.0            0.0            0.0                           
            16      G     -5.306495E-02   0.0            4.818115E-01   0.0            0.0            0.0                           
            17      G     -3.390555E-01   0.0           -4.214100E-01   0.0            0.0            0.0                           
            18      G     -3.969231E-01   0.0           -1.458731E-01   0.0            0.0            0.0                           
            19      G     -3.887292E-01   0.0            8.347291E-02   0.0            0.0            0.0                           
            20      G     -3.195796E-01   0.0            3.498286E-01   0.0            0.0            0.0                           
            21      G     -5.256982E-01   0.0           -2.230998E-01   0.0            0.0            0.0                           
            22      G     -5.906829E-01   0.0           -7.709538E-02   0.0            0.0            0.0                           
            23      G     -5.785339E-01   0.0            4.305656E-02   0.0            0.0            0.0                           
            24      G     -4.949215E-01   0.0            1.842644E-01   0.0            0.0            0.0                           
            25      G     -5.908250E-01   0.0            1.227958E-07   0.0            0.0            0.0                           
            26      G     -6.583772E-01   0.0            1.227958E-07   0.0            0.0            0.0                           
            27      G     -6.448504E-01   0.0            1.227958E-07   0.0            0.0            0.0                           
            28      G     -5.561131E-01   0.0            1.227958E-07   0.0            0.0            0.0                           
            29      G     -5.256982E-01   0.0            2.231001E-01   0.0            0.0            0.0                           
            30      G     -5.906829E-01   0.0            7.709563E-02   0.0            0.0            0.0                           
            31      G     -5.785339E-01   0.0           -4.305632E-02   0.0            0.0            0.0                           
            32      G     -4.949215E-01   0.0           -1.842641E-01   0.0            0.0            0.0                           
            33      G     -3.390555E-01   0.0            4.214103E-01   0.0            0.0            0.0                           
            34      G     -3.969231E-01   0.0            1.458734E-01   0.0            0.0            0.0                           
            35      G     -3.887292E-01   0.0           -8.347267E-02   0.0            0.0            0.0                           
            36      G     -3.195796E-01   0.0           -3.498284E-01   0.0            0.0            0.0                           
            37      G     -5.528571E-02   0.0            5.749024E-01   0.0            0.0            0.0                           
            38      G     -1.031466E-01   0.0            1.996002E-01   0.0            0.0            0.0                           
            39      G     -1.009851E-01   0.0           -1.192809E-01   0.0            0.0            0.0                           
            40      G     -5.306495E-02   0.0           -4.818113E-01   0.0            0.0            0.0                           
            41      G      2.892010E-01   0.0            6.719178E-01   0.0            0.0            0.0                           
            42      G      2.518869E-01   0.0            2.341192E-01   0.0            0.0            0.0                           
            43      G      2.467034E-01   0.0           -1.494929E-01   0.0            0.0            0.0                           
            44      G      2.703909E-01   0.0           -5.720755E-01   0.0            0.0            0.0                           
            45      G      6.519955E-01   0.0            7.126546E-01   0.0            0.0            0.0                           
            46      G      6.235925E-01   0.0            2.479933E-01   0.0            0.0            0.0                           
1     TRAPEZOIDAL (TRAPRG) ELEMENT PROBLEM                                  /    95 SUN SOLARIS NASTRAN    / MAY 17, 95 / PAGE    18
      NASTRAN TEST PROBLEM NO. T03-10-1A                                                                                            
0                                                                                                            SUBCASE  1             
      EIGENVALUE =  0.115431E+10    (CYCLIC FREQUENCY =  5.407312E+03 HZ)

                                         R E A L   E I G E N V E C T O R   N O .          4
 
      POINT ID.   TYPE          T1             T2             T3             R1             R2             R3
            47      G      6.107779E-01   0.0           -1.737841E-01   0.0            0.0            0.0                           
            48      G      6.111974E-01   0.0           -6.221358E-01   0.0            0.0            0.0                           
            49      G      1.000000E+00   0.0            7.127500E-01   0.0            0.0            0.0                           
            50      G      9.669811E-01   0.0            2.426053E-01   0.0            0.0            0.0                           
            51      G      9.478030E-01   0.0           -1.927088E-01   0.0            0.0            0.0                           
            52      G      9.393123E-01   0.0           -6.464143E-01   0.0            0.0            0.0                           




                                        * * * END OF JOB * * *
1
 JOB TITLE =  TRAPEZOIDAL (TRAPRG) ELEMENT PROBLEM                               
 DATE:  5/17/95
 END TIME: 16:44:45
 TOTAL WALL CLOCK TIME      3 SEC.
 
