     NASTRAN FILES = OPTP                                                            






                                  ****
                                *      *
                               *        *
                               *  N A S T R A N
                               *        *
                                *      *
                                  ****


                             SUN COMPUTER SYSTEMS    
                                SOLARIS VERSION

                          SYSTEM RELEASE -  1995 ED.

                                DISTRIBUTED BY

         COMPUTER SOFTWARE MANAGEMENT AND INFORMATION CENTER (COSMIC)
                 UNIVERSITY OF GEORGIA, ATHENS, GEORGIA 30602
                 PHONE: (706)542-3265      FAX: (706)542-4807
1                                                                           /    95 SUN SOLARIS NASTRAN    / MAY 18, 95 / PAGE     2
                                                                                                                                    
0                                                                                                                                   
                                                                                                         
                                                                                                         
                         INSTALLATION CENTER USER INFORMATION GIVEN IN THIS SECTION                      
                                                                                                         
                                     *********************************************                       
                                     *                                           *                       
                                     *  PLEASE READ THE COMMENT IN DEMO PROBLEM  *                       
                                     *  D01002A ABOUT SYSTEM TIMING CONSTANTS    *                       
                                     *                                           *                       
                                     *********************************************                       
                                                                                                         
                         ===X=    TOP OF PAGE REQUEST IF 'X' IS REPLACED BY '='                          
                                                                                                         
1                                                                           /    95 SUN SOLARIS NASTRAN    / MAY 18, 95 / PAGE     3
                                                                                                                                    
0                                                                                                                                   
0*** USER INFORMATION MESSAGE 225, GINO TIME CONSTANTS ARE BEING COMPUTED
     (SEE NASINFO FILE FOR ELIMINATION OF THESE COMPUTATIONS)
1                                                                           /    95 SUN SOLARIS NASTRAN    / MAY 18, 95 / PAGE     4
                                                                                                                                    
0        N A S T R A N    E X E C U T I V E    C O N T R O L    D E C K    E C H O                                                  
0                                                                                                                                   
                                                                                                                                    
                                                                                                                                    
     ID    T03121C,NASTRAN                                                           
     $                                                                               
     $     INSERT T03121A (NOT T03121B) CHECKPOINT DICTIONARY                        
     $                                                                               
0*** $   ... READFILE FROM-  RSCARDS                                                 
     RESTART  T03121A ,NASTRAN , 5/18/95,   36590,                                   
              1,   XVPS    ,   FLAGS = 0,   REEL =  1,   FILE =      6               
              2,   REENTER AT DMAP SEQUENCE NUMBER     6                             
              3,   GPL     ,   FLAGS = 0,   REEL =  1,   FILE =      7               
              4,   EQEXIN  ,   FLAGS = 0,   REEL =  1,   FILE =      8               
              5,   GPDT    ,   FLAGS = 0,   REEL =  1,   FILE =      9               
              6,   BGPDT   ,   FLAGS = 0,   REEL =  1,   FILE =     10               
              7,   SIL     ,   FLAGS = 0,   REEL =  1,   FILE =     11               
              8,   XVPS    ,   FLAGS = 0,   REEL =  1,   FILE =     12               
              9,   CSTM    ,   FLAGS = 0,   REEL =  0,   FILE =      0               
             10,   REENTER AT DMAP SEQUENCE NUMBER     7                             
             11,   XVPS    ,   FLAGS = 0,   REEL =  1,   FILE =     13               
             12,   MPTA    ,   FLAGS = 0,   REEL =  0,   FILE =      0               
             13,   REENTER AT DMAP SEQUENCE NUMBER     8                             
             14,   MPT     ,   FLAGS = 0,   REEL =  1,   FILE =     14               
             15,   XVPS    ,   FLAGS = 0,   REEL =  1,   FILE =     15               
             16,   REENTER AT DMAP SEQUENCE NUMBER     9                             
             17,   BGPDP   ,   FLAGS = 0,   REEL =  1,   FILE =     16               
             18,   SIP     ,   FLAGS = 0,   REEL =  1,   FILE =     17               
             19,   XVPS    ,   FLAGS = 0,   REEL =  1,   FILE =     18               
             20,   REENTER AT DMAP SEQUENCE NUMBER    10                             
             21,   ECT     ,   FLAGS = 0,   REEL =  1,   FILE =     19               
             22,   XVPS    ,   FLAGS = 0,   REEL =  1,   FILE =     20               
             23,   REENTER AT DMAP SEQUENCE NUMBER    12                             
             24,   XVPS    ,   FLAGS = 0,   REEL =  1,   FILE =     21               
             25,   PLTSETX ,   FLAGS = 0,   REEL =  0,   FILE =      0               
             26,   PLTPAR  ,   FLAGS = 0,   REEL =  0,   FILE =      0               
             27,   GPSETS  ,   FLAGS = 0,   REEL =  0,   FILE =      0               
             28,   ELSETS  ,   FLAGS = 0,   REEL =  0,   FILE =      0               
             29,   REENTER AT DMAP SEQUENCE NUMBER    22                             
             30,   XVPS    ,   FLAGS = 0,   REEL =  1,   FILE =     22               
             31,   GPTT    ,   FLAGS = 0,   REEL =  0,   FILE =      0               
             32,   REENTER AT DMAP SEQUENCE NUMBER    23                             
             33,   EST     ,   FLAGS = 0,   REEL =  1,   FILE =     23               
             34,   GPECT   ,   FLAGS = 0,   REEL =  1,   FILE =     24               
             35,   XVPS    ,   FLAGS = 0,   REEL =  1,   FILE =     25               
             36,   GEI     ,   FLAGS = 0,   REEL =  0,   FILE =      0               
             37,   MPTX    ,   FLAGS = 0,   REEL =  0,   FILE =      0               
             38,   PCOMPS  ,   FLAGS = 0,   REEL =  0,   FILE =      0               
             39,   EPTX    ,   FLAGS = 0,   REEL =  0,   FILE =      0               
             40,   REENTER AT DMAP SEQUENCE NUMBER    24                             
1                                                                           /    95 SUN SOLARIS NASTRAN    / MAY 18, 95 / PAGE     5
                                                                                                                                    
0        N A S T R A N    E X E C U T I V E    C O N T R O L    D E C K    E C H O                                                  
0                                                                                                                                   
                                                                                                                                    
                                                                                                                                    
             41,   MPT     ,   FLAGS = 0,   REEL =  1,   FILE =     26               
             42,   EPT     ,   FLAGS = 0,   REEL =  1,   FILE =     27               
             43,   XVPS    ,   FLAGS = 0,   REEL =  1,   FILE =     28               
             44,   REENTER AT DMAP SEQUENCE NUMBER    28                             
             45,   KELM    ,   FLAGS = 0,   REEL =  1,   FILE =     29               
             46,   KDICT   ,   FLAGS = 0,   REEL =  1,   FILE =     30               
             47,   MELM    ,   FLAGS = 0,   REEL =  1,   FILE =     31               
             48,   MDICT   ,   FLAGS = 0,   REEL =  1,   FILE =     32               
             49,   XVPS    ,   FLAGS = 0,   REEL =  1,   FILE =     33               
             50,   REENTER AT DMAP SEQUENCE NUMBER    29                             
             51,   XVPS    ,   FLAGS = 0,   REEL =  1,   FILE =     34               
             52,   KGGX    ,   FLAGS = 0,   REEL =  0,   FILE =      0               
             53,   REENTER AT DMAP SEQUENCE NUMBER    31                             
             54,   KGGX    ,   FLAGS = 0,   REEL =  1,   FILE =     35               
             55,   XVPS    ,   FLAGS = 0,   REEL =  1,   FILE =     36               
             56,   REENTER AT DMAP SEQUENCE NUMBER    34                             
             57,   MGG     ,   FLAGS = 0,   REEL =  1,   FILE =     37               
             58,   XVPS    ,   FLAGS = 0,   REEL =  1,   FILE =     38               
             59,   REENTER AT DMAP SEQUENCE NUMBER    35                             
             60,   XVPS    ,   FLAGS = 0,   REEL =  1,   FILE =     39               
             61,   MDICT   ,   FLAGS = 0,   REEL =  0,   FILE =      0               
             62,   MELM    ,   FLAGS = 0,   REEL =  0,   FILE =      0               
             63,   REENTER AT DMAP SEQUENCE NUMBER    40                             
             64,   KGGX    ,   FLAGS = 4,   REEL =  1,   FILE =     35               
             65,   KGG     ,   FLAGS = 4,   REEL =  1,   FILE =     35               
             66,   XVPS    ,   FLAGS = 0,   REEL =  1,   FILE =     40               
             67,   REENTER AT DMAP SEQUENCE NUMBER    44                             
             68,   GPST    ,   FLAGS = 0,   REEL =  1,   FILE =     41               
             69,   XVPS    ,   FLAGS = 0,   REEL =  1,   FILE =     42               
             70,   REENTER AT DMAP SEQUENCE NUMBER    46                             
             71,   YS      ,   FLAGS = 0,   REEL =  1,   FILE =     43               
             72,   USET    ,   FLAGS = 0,   REEL =  1,   FILE =     44               
             73,   XVPS    ,   FLAGS = 0,   REEL =  1,   FILE =     45               
             74,   RG      ,   FLAGS = 0,   REEL =  0,   FILE =      0               
             75,   ASET    ,   FLAGS = 0,   REEL =  0,   FILE =      0               
             76,   OGPST   ,   FLAGS = 0,   REEL =  0,   FILE =      0               
             77,   REENTER AT DMAP SEQUENCE NUMBER    48                             
             78,   XVPS    ,   FLAGS = 0,   REEL =  1,   FILE =     46               
             79,   KRR     ,   FLAGS = 0,   REEL =  0,   FILE =      0               
             80,   KLR     ,   FLAGS = 0,   REEL =  0,   FILE =      0               
             81,   DM      ,   FLAGS = 0,   REEL =  0,   FILE =      0               
             82,   MLR     ,   FLAGS = 0,   REEL =  0,   FILE =      0               
             83,   MR      ,   FLAGS = 0,   REEL =  0,   FILE =      0               
             84,   GM      ,   FLAGS = 0,   REEL =  0,   FILE =      0               
             85,   GO      ,   FLAGS = 0,   REEL =  0,   FILE =      0               
             86,   KFS     ,   FLAGS = 0,   REEL =  0,   FILE =      0               
             87,   QG      ,   FLAGS = 0,   REEL =  0,   FILE =      0               
1                                                                           /    95 SUN SOLARIS NASTRAN    / MAY 18, 95 / PAGE     6
                                                                                                                                    
0        N A S T R A N    E X E C U T I V E    C O N T R O L    D E C K    E C H O                                                  
0                                                                                                                                   
                                                                                                                                    
                                                                                                                                    
             88,   REENTER AT DMAP SEQUENCE NUMBER    49                             
             89,   USETF   ,   FLAGS = 0,   REEL =  1,   FILE =     47               
             90,   USETS   ,   FLAGS = 0,   REEL =  1,   FILE =     48               
             91,   AF      ,   FLAGS = 0,   REEL =  1,   FILE =     49               
             92,   DKGG    ,   FLAGS = 0,   REEL =  1,   FILE =     50               
             93,   XVPS    ,   FLAGS = 0,   REEL =  1,   FILE =     51               
             94,   REENTER AT DMAP SEQUENCE NUMBER    49                             
             95,   PV1     ,   FLAGS = 0,   REEL =  1,   FILE =     52               
             96,   XVPS    ,   FLAGS = 0,   REEL =  1,   FILE =     53               
             97,   REENTER AT DMAP SEQUENCE NUMBER    49                             
             98,   KXX     ,   FLAGS = 0,   REEL =  1,   FILE =     54               
             99,   KYY     ,   FLAGS = 0,   REEL =  1,   FILE =     55               
            100,   XVPS    ,   FLAGS = 0,   REEL =  1,   FILE =     56               
            101,   REENTER AT DMAP SEQUENCE NUMBER    49                             
            102,   MXX     ,   FLAGS = 0,   REEL =  1,   FILE =     57               
            103,   XVPS    ,   FLAGS = 0,   REEL =  1,   FILE =     58               
            104,   REENTER AT DMAP SEQUENCE NUMBER    49                             
            105,   XVPS    ,   FLAGS = 0,   REEL =  1,   FILE =     59               
            106,   RX      ,   FLAGS = 0,   REEL =  0,   FILE =      0               
            107,   REENTER AT DMAP SEQUENCE NUMBER    48                             
            108,   XVPS    ,   FLAGS = 0,   REEL =  1,   FILE =     60               
            109,   REENTER AT DMAP SEQUENCE NUMBER    49                             
            110,   AXY     ,   FLAGS = 0,   REEL =  1,   FILE =     61               
            111,   AYY     ,   FLAGS = 0,   REEL =  1,   FILE =     62               
            112,   XVPS    ,   FLAGS = 0,   REEL =  1,   FILE =     63               
            113,   REENTER AT DMAP SEQUENCE NUMBER    49                             
            114,   DKXX    ,   FLAGS = 0,   REEL =  1,   FILE =     64               
            115,   DKYY    ,   FLAGS = 0,   REEL =  1,   FILE =     65               
            116,   XVPS    ,   FLAGS = 0,   REEL =  1,   FILE =     66               
            117,   REENTER AT DMAP SEQUENCE NUMBER    49                             
            118,   PV2     ,   FLAGS = 0,   REEL =  1,   FILE =     67               
            119,   XVPS    ,   FLAGS = 0,   REEL =  1,   FILE =     68               
            120,   REENTER AT DMAP SEQUENCE NUMBER    49                             
            121,   AFRY    ,   FLAGS = 0,   REEL =  1,   FILE =     69               
            122,   XVPS    ,   FLAGS = 0,   REEL =  1,   FILE =     70               
            123,   REENTER AT DMAP SEQUENCE NUMBER    49                             
            124,   DKFRFR  ,   FLAGS = 0,   REEL =  1,   FILE =     71               
            125,   XVPS    ,   FLAGS = 0,   REEL =  1,   FILE =     72               
            126,   REENTER AT DMAP SEQUENCE NUMBER    49                             
            127,   GPLD    ,   FLAGS = 0,   REEL =  1,   FILE =     73               
            128,   SILD    ,   FLAGS = 0,   REEL =  1,   FILE =     74               
            129,   USETD   ,   FLAGS = 0,   REEL =  1,   FILE =     75               
            130,   EED     ,   FLAGS = 0,   REEL =  1,   FILE =     76               
            131,   EQDYN   ,   FLAGS = 0,   REEL =  1,   FILE =     77               
            132,   XVPS    ,   FLAGS = 0,   REEL =  1,   FILE =     78               
            133,   REENTER AT DMAP SEQUENCE NUMBER    48                             
            134,   KXX     ,   FLAGS = 4,   REEL =  1,   FILE =     35               
1                                                                           /    95 SUN SOLARIS NASTRAN    / MAY 18, 95 / PAGE     7
                                                                                                                                    
0        N A S T R A N    E X E C U T I V E    C O N T R O L    D E C K    E C H O                                                  
0                                                                                                                                   
                                                                                                                                    
                                                                                                                                    
            135,   XVPS    ,   FLAGS = 0,   REEL =  1,   FILE =     79               
            136,   REENTER AT DMAP SEQUENCE NUMBER    48                             
            137,   MXX     ,   FLAGS = 4,   REEL =  1,   FILE =     57               
            138,   MGG     ,   FLAGS = 4,   REEL =  1,   FILE =     57               
            139,   XVPS    ,   FLAGS = 0,   REEL =  1,   FILE =     80               
            140,   REENTER AT DMAP SEQUENCE NUMBER    50                             
            141,   KNN     ,   FLAGS = 4,   REEL =  1,   FILE =     81               
            142,   KGG     ,   FLAGS = 4,   REEL =  1,   FILE =     81               
            143,   KXX     ,   FLAGS = 4,   REEL =  1,   FILE =     81               
            144,   KGGX    ,   FLAGS = 4,   REEL =  1,   FILE =     81               
            145,   MNN     ,   FLAGS = 4,   REEL =  1,   FILE =     82               
            146,   MXX     ,   FLAGS = 4,   REEL =  1,   FILE =     82               
            147,   MGG     ,   FLAGS = 4,   REEL =  1,   FILE =     82               
            148,   XVPS    ,   FLAGS = 0,   REEL =  1,   FILE =     83               
            149,   REENTER AT DMAP SEQUENCE NUMBER    55                             
            150,   XVPS    ,   FLAGS = 0,   REEL =  1,   FILE =     84               
            151,   KFF     ,   FLAGS = 0,   REEL =  0,   FILE =      0               
            152,   MFF     ,   FLAGS = 0,   REEL =  0,   FILE =      0               
            153,   REENTER AT DMAP SEQUENCE NUMBER    57                             
            154,   KFF     ,   FLAGS = 0,   REEL =  1,   FILE =     85               
            155,   KFS     ,   FLAGS = 0,   REEL =  1,   FILE =     86               
            156,   MFF     ,   FLAGS = 0,   REEL =  1,   FILE =     87               
            157,   XVPS    ,   FLAGS = 0,   REEL =  1,   FILE =     88               
            158,   REENTER AT DMAP SEQUENCE NUMBER    59                             
            159,   XVPS    ,   FLAGS = 0,   REEL =  1,   FILE =     89               
            160,   KAA     ,   FLAGS = 0,   REEL =  0,   FILE =      0               
            161,   REENTER AT DMAP SEQUENCE NUMBER    60                             
            162,   XVPS    ,   FLAGS = 0,   REEL =  1,   FILE =     90               
            163,   MAA     ,   FLAGS = 0,   REEL =  0,   FILE =      0               
            164,   REENTER AT DMAP SEQUENCE NUMBER    63                             
            165,   GO      ,   FLAGS = 0,   REEL =  1,   FILE =     91               
            166,   KAA     ,   FLAGS = 0,   REEL =  1,   FILE =     92               
            167,   KOO     ,   FLAGS = 0,   REEL =  1,   FILE =     93               
            168,   LOO     ,   FLAGS = 0,   REEL =  1,   FILE =     94               
            169,   XVPS    ,   FLAGS = 0,   REEL =  1,   FILE =     95               
            170,   REENTER AT DMAP SEQUENCE NUMBER    63                             
            171,   MAA     ,   FLAGS = 0,   REEL =  1,   FILE =     96               
            172,   XVPS    ,   FLAGS = 0,   REEL =  1,   FILE =     97               
            173,   REENTER AT DMAP SEQUENCE NUMBER    72                             
            174,   CASE1   ,   FLAGS = 0,   REEL =  1,   FILE =     98               
            175,   XVPS    ,   FLAGS = 0,   REEL =  1,   FILE =     99               
            176,   REENTER AT DMAP SEQUENCE NUMBER    74                             
            177,   LAMA    ,   FLAGS = 0,   REEL =  1,   FILE =    100               
            178,   PHIA    ,   FLAGS = 0,   REEL =  1,   FILE =    101               
            179,   MI      ,   FLAGS = 0,   REEL =  1,   FILE =    102               
            180,   OEIGS   ,   FLAGS = 0,   REEL =  1,   FILE =    103               
            181,   XVPS    ,   FLAGS = 0,   REEL =  1,   FILE =    104               
1                                                                           /    95 SUN SOLARIS NASTRAN    / MAY 18, 95 / PAGE     8
                                                                                                                                    
0        N A S T R A N    E X E C U T I V E    C O N T R O L    D E C K    E C H O                                                  
0                                                                                                                                   
                                                                                                                                    
                                                                                                                                    
            182,   REENTER AT DMAP SEQUENCE NUMBER    80                             
            183,   PHIG    ,   FLAGS = 0,   REEL =  1,   FILE =    105               
            184,   QG      ,   FLAGS = 0,   REEL =  1,   FILE =    106               
            185,   XVPS    ,   FLAGS = 0,   REEL =  1,   FILE =    107               
            186,   REENTER AT DMAP SEQUENCE NUMBER    83                             
            187,   PHIGS   ,   FLAGS = 0,   REEL =  1,   FILE =    108               
            188,   XVPS    ,   FLAGS = 0,   REEL =  1,   FILE =    109               
            189,   REENTER AT DMAP SEQUENCE NUMBER    83                             
            190,   QGS     ,   FLAGS = 0,   REEL =  1,   FILE =    110               
            191,   XVPS    ,   FLAGS = 0,   REEL =  1,   FILE =    111               
            192,   REENTER AT DMAP SEQUENCE NUMBER    83                             
            193,   OPHIGS  ,   FLAGS = 0,   REEL =  1,   FILE =    112               
            194,   XVPS    ,   FLAGS = 0,   REEL =  1,   FILE =    113               
            195,   OQGS    ,   FLAGS = 0,   REEL =  0,   FILE =      0               
            196,   OEFS    ,   FLAGS = 0,   REEL =  0,   FILE =      0               
            197,   PPHIGS  ,   FLAGS = 0,   REEL =  0,   FILE =      0               
            198,   REENTER AT DMAP SEQUENCE NUMBER    82                             
            199,   XVPS    ,   FLAGS = 0,   REEL =  1,   FILE =    114               
            200,   DKAA    ,   FLAGS = 0,   REEL =  0,   FILE =      0               
            201,   REENTER AT DMAP SEQUENCE NUMBER    82                             
            202,   DKXX    ,   FLAGS = 4,   REEL =  1,   FILE =     64               
            203,   DKNN    ,   FLAGS = 4,   REEL =  1,   FILE =     64               
            204,   XVPS    ,   FLAGS = 0,   REEL =  1,   FILE =    115               
            205,   REENTER AT DMAP SEQUENCE NUMBER    82                             
            206,   XVPS    ,   FLAGS = 0,   REEL =  1,   FILE =    116               
            207,   DKFF    ,   FLAGS = 0,   REEL =  0,   FILE =      0               
            208,   REENTER AT DMAP SEQUENCE NUMBER    83                             
            209,   DKFF    ,   FLAGS = 0,   REEL =  1,   FILE =    117               
            210,   XVPS    ,   FLAGS = 0,   REEL =  1,   FILE =    118               
            211,   REENTER AT DMAP SEQUENCE NUMBER    82                             
            212,   XVPS    ,   FLAGS = 0,   REEL =  1,   FILE =    119               
            213,   REENTER AT DMAP SEQUENCE NUMBER    83                             
            214,   DKAA    ,   FLAGS = 0,   REEL =  1,   FILE =    120               
            215,   XVPS    ,   FLAGS = 0,   REEL =  1,   FILE =    121               
            216,   REENTER AT DMAP SEQUENCE NUMBER    83                             
            217,   KMAT    ,   FLAGS = 0,   REEL =  1,   FILE =    122               
            218,   MMAT    ,   FLAGS = 0,   REEL =  1,   FILE =    123               
            219,   GIH     ,   FLAGS = 0,   REEL =  1,   FILE =    124               
            220,   PV4     ,   FLAGS = 0,   REEL =  1,   FILE =    125               
            221,   XVPS    ,   FLAGS = 0,   REEL =  1,   FILE =    126               
            222,   REENTER AT DMAP SEQUENCE NUMBER    83                             
            223,   CASE2   ,   FLAGS = 0,   REEL =  1,   FILE =    127               
            224,   XVPS    ,   FLAGS = 0,   REEL =  1,   FILE =    128               
            225,   REENTER AT DMAP SEQUENCE NUMBER    83                             
            226,   LAMAT   ,   FLAGS = 0,   REEL =  1,   FILE =    129               
            227,   PHIH    ,   FLAGS = 0,   REEL =  1,   FILE =    130               
            228,   MH      ,   FLAGS = 0,   REEL =  1,   FILE =    131               
1                                                                           /    95 SUN SOLARIS NASTRAN    / MAY 18, 95 / PAGE     9
                                                                                                                                    
0        N A S T R A N    E X E C U T I V E    C O N T R O L    D E C K    E C H O                                                  
0                                                                                                                                   
                                                                                                                                    
                                                                                                                                    
            229,   OEIGH   ,   FLAGS = 0,   REEL =  1,   FILE =    132               
            230,   XVPS    ,   FLAGS = 0,   REEL =  1,   FILE =    133               
            231,   REENTER AT DMAP SEQUENCE NUMBER    83                             
            232,   PHII    ,   FLAGS = 0,   REEL =  1,   FILE =    134               
            233,   XVPS    ,   FLAGS = 0,   REEL =  1,   FILE =    135               
            234,   REENTER AT DMAP SEQUENCE NUMBER    82                             
            235,   XVPS    ,   FLAGS = 0,   REEL =  1,   FILE =    136               
            236,   PHIZ    ,   FLAGS = 0,   REEL =  0,   FILE =      0               
            237,   REENTER AT DMAP SEQUENCE NUMBER    82                             
            238,   XVPS    ,   FLAGS = 0,   REEL =  1,   FILE =    137               
            239,   PHIY    ,   FLAGS = 0,   REEL =  0,   FILE =      0               
            240,   REENTER AT DMAP SEQUENCE NUMBER    83                             
            241,   PHIZ    ,   FLAGS = 0,   REEL =  1,   FILE =    138               
            242,   PHIFR   ,   FLAGS = 0,   REEL =  1,   FILE =    139               
            243,   XVPS    ,   FLAGS = 0,   REEL =  1,   FILE =    140               
            244,   REENTER AT DMAP SEQUENCE NUMBER    83                             
            245,   PHIY    ,   FLAGS = 0,   REEL =  1,   FILE =    141               
            246,   XVPS    ,   FLAGS = 0,   REEL =  1,   FILE =    142               
            247,   REENTER AT DMAP SEQUENCE NUMBER    83                             
            248,   PHIX    ,   FLAGS = 0,   REEL =  1,   FILE =    143               
            249,   XVPS    ,   FLAGS = 0,   REEL =  1,   FILE =    144               
            250,   REENTER AT DMAP SEQUENCE NUMBER    83                             
            251,   QX      ,   FLAGS = 0,   REEL =  1,   FILE =    145               
            252,   XVPS    ,   FLAGS = 0,   REEL =  1,   FILE =    146               
            253,   REENTER AT DMAP SEQUENCE NUMBER    83                             
            254,   PHIGT   ,   FLAGS = 0,   REEL =  1,   FILE =    147               
            255,   XVPS    ,   FLAGS = 0,   REEL =  1,   FILE =    148               
            256,   REENTER AT DMAP SEQUENCE NUMBER    83                             
            257,   QGT     ,   FLAGS = 0,   REEL =  1,   FILE =    149               
            258,   XVPS    ,   FLAGS = 0,   REEL =  1,   FILE =    150               
            259,   REENTER AT DMAP SEQUENCE NUMBER    83                             
            260,   OQG1    ,   FLAGS = 0,   REEL =  1,   FILE =    151               
            261,   OPHIG   ,   FLAGS = 0,   REEL =  1,   FILE =    152               
            262,   XVPS    ,   FLAGS = 0,   REEL =  1,   FILE =    153               
            263,   OES1    ,   FLAGS = 0,   REEL =  0,   FILE =      0               
            264,   OEF1    ,   FLAGS = 0,   REEL =  0,   FILE =      0               
            265,   PPHIG   ,   FLAGS = 0,   REEL =  0,   FILE =      0               
            266,   OES1L   ,   FLAGS = 0,   REEL =  0,   FILE =      0               
            267,   OEF1L   ,   FLAGS = 0,   REEL =  0,   FILE =      0               
            268,   REENTER AT DMAP SEQUENCE NUMBER    85                             
            269,   XVPS    ,   FLAGS = 0,   REEL =  1,   FILE =    154               
            270,   OESF1   ,   FLAGS = 0,   REEL =  0,   FILE =      0               
            271,   OESF1L  ,   FLAGS = 0,   REEL =  0,   FILE =      0               
            272,   REENTER AT DMAP SEQUENCE NUMBER    87                             
            273,   XVPS    ,   FLAGS = 0,   REEL =  1,   FILE =    155               
            274,   ONRGY1  ,   FLAGS = 0,   REEL =  0,   FILE =      0               
            275,   REENTER AT DMAP SEQUENCE NUMBER    89                             
1                                                                           /    95 SUN SOLARIS NASTRAN    / MAY 18, 95 / PAGE    10
                                                                                                                                    
0        N A S T R A N    E X E C U T I V E    C O N T R O L    D E C K    E C H O                                                  
0                                                                                                                                   
                                                                                                                                    
                                                                                                                                    
            276,   XVPS    ,   FLAGS = 0,   REEL =  1,   FILE =    156               
            277,   KDICT   ,   FLAGS = 0,   REEL =  0,   FILE =      0               
            278,   KELM    ,   FLAGS = 0,   REEL =  0,   FILE =      0               
            279,   REENTER AT DMAP SEQUENCE NUMBER   104                             
            280,   XVPS    ,   FLAGS = 0,   REEL =  1,   FILE =    157               
            281,   DUMMY   ,   FLAGS = 0,   REEL =  0,   FILE =      0               
     $ END OF CHECKPOINT DICTIONARY                                                  
0*** $   END READFILE                                                                
     TIME  10                                                                        
     SOL   3,0                                                                       
     APP   DISP                                                                      
     $ INSERT HYDRO MODAL DMAP ALTERS (COSHYD2) AFTER THIS CARD                      
0*** $   ... READFILE FROM-  COSHYD2                                                 
     $ COSMIC ALTERS FOR HYDROELASTIC ANALYSIS - MODAL FORMULATION (COSHYD2)         
     $ ALTER    1,1 $  COSMIC/NASTRAN RF 3. REPLACING BEGIN                          
     DELETE BEGIN $                                                                  
     XDMAP    GO,ERR=2 $                                                             
     BEGIN    HYDROELASTIC ANALYSIS - MODAL FORMULATION                              
     $ ALTER    3 $  AFTER PRECHK/FILE                                               
     INSERT FILE $                                                                   
     COMPOFF  NEW1,NEWMODE $                                                         
     $ ALTER    46 $  AFTER OFP/COND/PURGE                                           
     INSERT GP4,3 $                                                                  
     FLBMG    GEOM2,ECT,BGPDT,SIL,MPT,GEOM3,CSTM,USET,EQEXIN/USETF,USETS,AF,         
              DKGG/S,N,NOGRAV/S,N,NOFREE/S,N,TILT $                                  
     VEC      USETF/PV1/*G*/*X*/*Y* $                                                
     PARTN    KGG,PV1,/KXX,,,KYY $                                                   
     PARTN    MGG,PV1,/MXX,,, $                                                      
     PARTN    RG,PV1,/RX,,,/1 $                                                      
     EQUIV    RX,RG $                                                                
     PARTN    AF,PV1,/,,AXY,AYY $                                                    
     COND     MODAL1,NOGRAV $                                                        
     PARTN    DKGG,PV1,/DKXX,,,DKYY $                                                
     COND     MODAL1,NOFREE $                                                        
     VEC      USETF/PV2/*Y*/*FR*/*COMP* $                                            
     PARTN    AYY,,PV2/AFRY,,,/0 $                                                   
     PARTN    DKYY,PV2,/DKFRFR,,, $                                                  
     LABEL    MODAL1 $                                                               
     LABEL    NEW1 $                                                                 
     DPD      DYNAMICS,GPL,SIL,USET/GPLD,SILD,USETD,,,,,,,EED,EQDYN/LUSET/           
              LUSETD/NOTFL/NODLT/NOPSDL/NOFRL/NONLFT/NOTRL/S,N,NOEED//NOUE $         
     COND     ERROR2,NOEED $                                                         
     COMPOFF  NEW2,NEWMODE $                                                         
     PARAM    //*MPY*/CARDNO/0/0 $                                                   
     COMPOFF  NOSTRUC,OLDSTR $                                                       
     COMPON   2,DIFSTIF $                                                            
1                                                                           /    95 SUN SOLARIS NASTRAN    / MAY 18, 95 / PAGE    11
                                                                                                                                    
0        N A S T R A N    E X E C U T I V E    C O N T R O L    D E C K    E C H O                                                  
0                                                                                                                                   
                                                                                                                                    
                                                                                                                                    
     PARAMR   //*COMPLEX*//V,Y,DIFSCALE=1.0/0.0/DIFSCAL/// $                         
     ADD      KXX,KDGG/KGG/(1.0,0.0)/DIFSCAL $                                       
     COMPOFF  1,DIFSTIF $                                                            
     EQUIV    KXX,KGG $                                                              
     EQUIV    MXX,MGG $                                                              
     $ ALTER    49,50 $  REPLACING MCE1, MCE2                                        
     DELETE MCE1,MCE2 $                                                              
     MCE1     USETS,RG/GM $                                                          
     MCE2     USETS,GM,KGG,MGG,,/KNN,MNN,, $                                         
     $ ALTER    54,54 $  REPLACING SCE1                                              
     DELETE SCE1 $                                                                   
     SCE1     USETS,KNN,MNN,,/KFF,KFS,,MFF,, $                                       
     $ ALTER    59,60 $  REPLACING SMP1, SMP2                                        
     DELETE SMP1,SMP2 $                                                              
     SMP1     USETS,KFF,,,/GO,KAA,KOO,LOO,,,,, $                                     
     SMP2     USETS,GO,MFF/MAA $                                                     
     $ ALTER    63,63 $  REPLACING RBMG1                                             
     DELETE RBMG1 $                                                                  
     RBMG1    USETS,KAA,MAA/KLL,KLR,KRR,MLL,MLR,MRR $                                
     $ ALTER    68,69 $  REPLACING DPD, COND                                         
     DELETE DPD,DPD,1 $                                                              
     CASE     CASECC,/CASE1/*REIGEN*/S,N,REPT/S,N,LOLP $                             
     $ ALTER    71,71 $  REPLACING READ                                              
     DELETE READ $                                                                   
     READ     KAA,MAA,MR,DM,EED,USETS,CASECC/LAMA,PHIA,MI,OEIGS/*MODES*/             
              S,N,NEIGV $                                                            
     $ ALTER    75,77 $  REPLACING SDR1, COND, EQMCK                                 
     DELETE SDR1,EQMCK $                                                             
     SDR1     USETS,,PHIA,,,GO,GM,,KFS,,/PHIG,,QG/1/*REIG* $                         
     COND     NOMPCF,GRDEQ $                                                         
     EQMCK    CASECC,EQEXIN,GPL,BGPDT,SIL,USETS,KGG,GM,PHIG,LAMA,QG,CSTM/            
              OQM1/V,Y,OPT=0/V,Y,GRDEQ/-1 $                                          
     $ ALTER    80,80 $  REPLACING SDR2                                              
     DELETE SDR2 $                                                                   
     MERGE    PHIG,,,,,PV1/PHIGS/0 $                                                 
     MERGE    QG,,,,,PV1/QGS/0 $                                                     
     SDR2     CASE1,CSTM,MPT,DIT,EQEXIN,SIL,,,BGPDT,LAMA,QGS,PHIGS,EST,,,/,          
              OQGS,OPHIGS,,OEFS,PPHIGS,,/*REIG* $                                    
     OFP      OPHIGS,OQGS,OEFS,,,//S,N,CARDNO $                                      
     LABEL    NOSTRUC $                                                              
     PURGE    DKAA/NOGRAV $                                                          
     COND     MODAL4,NOGRAV $                                                        
     EQUIV    DKXX,DKNN/MPCF1 $                                                      
     COND     MODAL2,MPCF2 $                                                         
     MCE2     USETS,GM,DKXX,,,/DKNN,,, $                                             
     LABEL    MODAL2 $                                                               
     EQUIV    DKNN,DKFF/SINGLE $                                                     
1                                                                           /    95 SUN SOLARIS NASTRAN    / MAY 18, 95 / PAGE    12
                                                                                                                                    
0        N A S T R A N    E X E C U T I V E    C O N T R O L    D E C K    E C H O                                                  
0                                                                                                                                   
                                                                                                                                    
                                                                                                                                    
     COND     MODAL3,SINGLE $                                                        
     SCE1     USETS,DKNN,,,/DKFF,,,,, $                                              
     LABEL    MODAL3 $                                                               
     EQUIV    DKFF,DKAA/OMIT $                                                       
     COND     MODAL4,OMIT $                                                          
     SMP2     USETS,GO,DKFF/DKAA $                                                   
     LABEL    MODAL4 $                                                               
     GFSMA    AXY,AFRY,KYY,DKAA,DKFRFR,,,,,,USETF,PHIA,PHIG,LAMA/KMAT,MMAT,          
              GIH,PV4,/NOGRAV/NOFREE/V,Y,KCOMP/V,Y,COMPTYP/FORM=1/                   
              S,Y,LMODES $                                                           
     JUMP     OLD2 $                                                                 
     LABEL    NEW2 $                                                                 
     PARAM    //*MPY*/REPT/1/1 $                                                     
     LABEL    OLD2 $                                                                 
     CASE     CASECC,/CASE2/*REIGEN*/S,N,REPT/S,N,LOLP $                             
     PARAM    //*MPY*/NEIGV/1/-1 $                                                   
     READ     KMAT,MMAT,,,EED,USETF,CASE2/LAMAT,PHIH,MH,OEIGH/*MODES*/               
              S,N,NEIGV $                                                            
     OFP      LAMAT,OEIGH,,,,//S,N,CARDNO $                                          
     COND     FINIS,NEIGV $                                                          
     MPYAD    GIH,PHIH,/PHII/0/1/0 $                                                 
     EQUIV    PHIH,PHIZ/NOFREE $                                                     
     EQUIV    PHII,PHIY/NOFREE $                                                     
     COND     MODAL5,NOFREE $                                                        
     PARTN    PHIH,,PV4/PHIZ,PHIFR,,/0 $                                             
     MERGE    PHIFR,PHII,,,,PV2/PHIY/0 $                                             
     LABEL    MODAL5 $                                                               
     COND     ALLMODES,LMODES                                                        
     TRAILER  PHIG//*STORE*/1/V,Y,LMODES $                                           
     TRAILER  QG//*STORE*/1/V,Y,LMODES $                                             
     LABEL    ALLMODES $                                                             
     MPYAD    PHIG,PHIZ,/PHIX/0/1/0 $                                                
     MPYAD    QG,PHIZ,/QX/0/1/0 $                                                    
     MERGE    PHIX,PHIY,,,,PV1/PHIGT/0 $                                             
     MERGE    QX,,,,,PV1/QGT/0 $                                                     
     SDR2     CASE2,CSTM,MPT,DIT,EQEXIN,SIL,,,BGPDP,LAMAT,QGT,PHIGT,EST,,,           
              PCOMPS/,OQG1,OPHIG,OES1,OEF1,PPHIG,OES1L,OEF1L/*REIG* $                
     ENDALTER $                                                                      
0*** $   END READFILE                                                                
     $ INSERT HYDRO MODAL DMAP ALTERS (COSHYD2) BEFORE THIS CARD                     
     CEND                                                                            


0*** USER INFORMATION MESSAGE, TURN DIAG 48 ON FOR NASTRAN RELEASE NEWS, DIAG DEFINITION, NEW DMAP
         MODULES AND NEW BULKDATA CARDS INFORMATION
1     HYDROELASTIC MODAL FORMULATION RESTART WITH NEW FLUID MODEL           /    95 SUN SOLARIS NASTRAN    / MAY 18, 95 / PAGE    13
      NASTRAN TEST PROBLEM NO. T03-12-1C                                                                                            
0                                                                                                                                   
0                                        C A S E    C O N T R O L   D E C K   E C H O                                               
                 CARD                                                                                                               
                 COUNT                                                                                                              
                  1      TITLE    = HYDROELASTIC MODAL FORMULATION RESTART WITH NEW FLUID MODEL          
                  2      SUBTITLE = NASTRAN TEST PROBLEM NO. T03-12-1C                                   
                  3      $ REFERENCE PROBLEM IV.3                                                        
                  4      SPC  = 10                                                                       
                  5      DISP = ALL                                                                      
                  6      SUBCASE 2                                                                       
                  7          LABEL  = MODES WITH FLUID INCLUDED                                          
                  8          METHOD = 60                                                                 
                  9          SPCF   = ALL                                                                
                 10      BEGIN BULK                                                                      
1     HYDROELASTIC MODAL FORMULATION RESTART WITH NEW FLUID MODEL           /    95 SUN SOLARIS NASTRAN    / MAY 18, 95 / PAGE    14
      NASTRAN TEST PROBLEM NO. T03-12-1C                                                                                            
0                                                                                                                                   
0                                             I N P U T   B U L K   D A T A   D E C K   E C H O                                     
                                                                                                                                    
                                  ---1--- +++2+++ ---3--- +++4+++ ---5--- +++6+++ ---7--- +++8+++ ---9--- +++10+++                  
                              $                                                                                             
                              $ NEW FLUID MODEL                                                                             
                              $                                                                                             
                              /       1       4                                                                             
                              CFWEDGE 1       200     1       2       3       5       6       7                             
                              CFWEDGE 2       200     2       4       3       6       8       7                             
                              CFFREE  1       100     5               2       100     5                                     
                              CFLSTR  1       100     101     104                                                           
                              CFLSTR  2       100     102     103     104                                                   
                              $                                                                                             
                              $ *** NOTE *** AT LEAST ONE GRID MUST BE ALTERED IN TO FORCE                                  
                              $              REEXECUTION OF PROPER MODULES                                                  
                              $                                                                                             
                              /       14                                                                                    
                              GRID    1               .0      .0      .0                                                    
                              $                                                                                             
                              $ PARAMETER TO SKIP RECOMPUTATION OF UNCHANGED STRUCTURE                                      
                              $                                                                                             
                              PARAM   OLDSTR  -1                                                                            
                              ENDDATA                                                                                       


                        TOTAL COUNT=     19
0*** USER INFORMATION MESSAGE 207, BULK DATA DECK IS NOT SORTED. NASTRAN WILL RE-ORDER THE INPUT DECK.
1     HYDROELASTIC MODAL FORMULATION RESTART WITH NEW FLUID MODEL           /    95 SUN SOLARIS NASTRAN    / MAY 18, 95 / PAGE    15
      NASTRAN TEST PROBLEM NO. T03-12-1C                                                                                            
0                                                                                                                                   
0                                                 S O R T E D   B U L K    D A T A    E C H O                                       
                     CARD                                                                                                           
                     COUNT        ---1--- +++2+++ ---3--- +++4+++ ---5--- +++6+++ ---7--- +++8+++ ---9--- +++10+++                  
                    1-        CFFREE  1       100     5               2       100     5                       
                    2-        CFLSTR  1       100     101     104                                             
                    3-        CFLSTR  2       100     102     103     104                                     
                    4-        CFWEDGE 1       200     1       2       3       5       6       7               
                    5-        CFWEDGE 2       200     2       4       3       6       8       7               
                    6-        CQUAD2  101     100     101     102     106     105                             
                    7-        CQUAD2  102     100     102     104     108     106                             
                    8-        CQUAD2  103     100     104     103     107     108                             
                    9-        CQUAD2  104     100     101     103     104     102                             
                   10-        EIGR    50      GIV     0.0     2600.0  10      10      0               +EMOD1  
                   11-        +EMOD1  MAX                                                                     
                   12-        EIGR    60      GIV     0.0     10.0    6       6       0               +E1     
                   13-        +E1     MAX                                                                     
                   14-        GRAV    100             386.0   0.0     0.0     -1.0                            
                   15-        GRID    1               .0      .0      .0                                      
                   16-        GRID    2               6.0     0.0     0.0                                     
                   17-        GRID    3               0.0     12.0    0.0                                     
                   18-        GRID    4               6.0     12.0    0.0                                     
                   19-        GRID    5               0.0     0.0     12.0                                    
                   20-        GRID    6               6.0     0.0     12.0                                    
                   21-        GRID    7               0.0     12.0    12.0                                    
                   22-        GRID    8               6.0     12.0    12.0                                    
                   23-        GRID    101             0.0     0.0     0.0                                     
                   24-        GRID    102             6.0     0.0     0.0                                     
                   25-        GRID    103             0.0     12.0    0.0                                     
                   26-        GRID    104             6.0     12.0    0.0                                     
                   27-        GRID    105             0.0     0.0     12.0                                    
                   28-        GRID    106             6.0     0.0     12.0                                    
                   29-        GRID    107             0.0     12.0    12.0                                    
                   30-        GRID    108             6.0     12.0    12.0                                    
                   31-        MAT1    100     10.6+6          .3      .92-3                                   
                   32-        MATF    200     9.355-4                                                         
                   33-        OMIT1   4       101     103     105     107                                     
                   34-        OMIT1   456     102     104     106     108                                     
                   35-        PARAM   OLDSTR  -1                                                              
                   36-        PQUAD2  100     100     .06                                                     
                   37-        SPC1    10      1256    101     103     105     107                             
                              ENDDATA
1     HYDROELASTIC MODAL FORMULATION RESTART WITH NEW FLUID MODEL           /    95 SUN SOLARIS NASTRAN    / MAY 18, 95 / PAGE    16
      NASTRAN TEST PROBLEM NO. T03-12-1C                                                                                            
0                                                                                                                                   
0*** USER INFORMATION MESSAGE 4144, THIS IS A MODIFIED RESTART.
0*** USER INFORMATION MESSAGE. CASE CONTROL AND BULK DATA DECK CHANGES AFFECTING THIS RESTART ARE INDICATED BELOW.

0*** USER INFORMATION MESSAGE. EFFECTIVE CASE CONTROL DECK CHANGES
 -----------------------------------


 MASK WORD - BIT POSITION ---- FLAG NAME ---- PACKED BIT POSITION

    17
                   4           METHOD$                62
                  17           POUT$                  19
0*** USER INFORMATION MESSAGE. EFFECTIVE BULK DATA DECK CHANGES
 --------------------------------


 MASK WORD - BIT POSITION - CARD/PARAM NAME - PACKED BIT POSITION

     1
                   1           GRID                    1
1     HYDROELASTIC MODAL FORMULATION RESTART WITH NEW FLUID MODEL           /    95 SUN SOLARIS NASTRAN    / MAY 18, 95 / PAGE    17
      NASTRAN TEST PROBLEM NO. T03-12-1C                                                                                            
0                                                                                                                                   
0         COSMIC / NASTRAN DMAP COMPILER - SOURCE LISTING                                                                           
                                                                                                                                    
                                                                                                                                    
0  OPTIONS IN EFFECT GO      ERR=2   LIST    NODECK  NOREF   NOOSCAR 
   -----------------


       1  XDMAP    GO,ERR=2 $                                                     
+  +

       1  BEGIN    HYDROELASTIC ANALYSIS - MODAL FORMULATION                      
+  +

       2  PRECHK   ALL $                                                          

       3  FILE     LAMA=APPEND/PHIA=APPEND $                                      
+  +

       3  COMPOFF  NEW1,NEWMODE $                                                 

       4  PARAM    //*MPY*/CARDNO/0/0 $                                           
+  *

       5  GP1      GEOM1,GEOM2,/GPL,EQEXIN,GPDT,CSTM,BGPDT,SIL/S,N,LUSET/         
+  *
                   NOGPDT/ALWAYS=-1 $                                             

       6  ANISOP   GEOM1,EPT,BGPDT,EQEXIN,MPT/MPTA/S,N,ISOP $                     

       7  EQUIV    MPTA,MPT/ISOP $                                                

       8  PLTTRAN  BGPDT,SIL/BGPDP,SIP/LUSET/S,N,LUSEP $                          
+  *

       9  GP2      GEOM2,EQEXIN/ECT $                                             
+  *

      10  PARAML   PCDB//*PRES*////JUMPPLOT $                                     

      11  PURGE    PLTSETX,PLTPAR,GPSETS,ELSETS/JUMPPLOT $                        

      12  COND     P1,JUMPPLOT $                                                  
+  *

      13  PLTSET   PCDB,EQEXIN,ECT,EPT/PLTSETX,PLTPAR,GPSETS,ELSETS/S,N,NSIL/     
+  *
                   S,N,JUMPPLOT $                                                 

      14  PRTMSG   PLTSETX// $                                                    
+  *

      15  PARAM    //*MPY*/PLTFLG/1/1 $                                           
+  *

      16  PARAM    //*MPY*/PFILE/0/0 $                                            
+  *

      17  COND     P1,JUMPPLOT $                                                  
+  *

      18  PLOT     PLTPAR,GPSETS,ELSETS,CASECC,BGPDT,EQEXIN,SIL,,ECT,,,,/PLOTX1/  
+  *
1     HYDROELASTIC MODAL FORMULATION RESTART WITH NEW FLUID MODEL           /    95 SUN SOLARIS NASTRAN    / MAY 18, 95 / PAGE    18
      NASTRAN TEST PROBLEM NO. T03-12-1C                                                                                            
0                                                                                                                                   
0         COSMIC / NASTRAN DMAP COMPILER - SOURCE LISTING                                                                           
                                                                                                                                    
                                                                                                                                    
                   NSIL/LUSET/S,N,JUMPPLOT/S,N,PLTFLG/S,N,PFILE  $                

      19  PRTMSG   PLOTX1//$                                                      
+  *

      20  LABEL    P1 $                                                           
+  +

      21  GP3      GEOM3,EQEXIN,GEOM2/,GPTT/NOGRAV $                              
+  *

      22  TA1      ECT,EPT,BGPDT,SIL,GPTT,CSTM,MPT,EQEXIN/EST,GEI,GPECT,,,MPTX,   
+  *
                   PCOMPS,EPTX/LUSET/S,N,NOSIMP/1/S,N,NOGENL/GENEL/S,N,COMPS $    

      23  EQUIV    MPTX,MPT/COMPS/EPTX,EPT/COMPS $                                
+  *

      24  COND     ERROR4,NOSIMP $                                                
+  *

      25  PARAM    //*ADD*/NOKGGX/1/0 $                                           
+  *

      26  PARAM    //*ADD*/NOMGG/1/0 $                                            
+  *

      27  EMG      EST,CSTM,MPT,DIT,GEOM2,/KELM,KDICT,MELM,MDICT,,,/S,N,NOKGGX/   
+  *
                   S,N,NOMGG////C,Y,COUPMASS/C,Y,CPBAR/C,Y,CPROD/C,Y,CPQUAD1/     
                   C,Y,CPQUAD2/C,Y,CPTRIA1/C,Y,CPTRIA2/C,Y,CPTUBE/C,Y,CPQDPLT/    
                   C,Y,CPTRPLT/C,Y,CPTRBSC/C,Y,VOLUME/C,Y,SURFACE $               

      28  PURGE    KGGX/NOKGGX $                                                  
+  *

      29  COND     JMPKGG,NOKGGX $                                                
+  *

      30  EMA      GPECT,KDICT,KELM/KGGX $                                        
+  *

      31  LABEL    JMPKGG $                                                       
+  +

      32  COND     ERROR1,NOMGG $                                                 
+  *

      33  EMA      GPECT,MDICT,MELM/MGG/-1/C,Y,WTMASS=1.0 $                       
+  *

      34  PURGE    MDICT,MELM/ALWAYS $                                            
+  *

      35  COND     LGPWG,GRDPNT $                                                 
+  *

      36  GPWG     BGPDP,CSTM,EQEXIN,MGG/OGPWG/V,Y,GRDPNT=-1/C,Y,WTMASS $         
+  *

      37  OFP      OGPWG,,,,,//S,N,CARDNO $                                       
+  *

      38  LABEL    LGPWG $                                                        
+  +

      39  EQUIV    KGGX,KGG/NOGENL $                                              
+  *
1     HYDROELASTIC MODAL FORMULATION RESTART WITH NEW FLUID MODEL           /    95 SUN SOLARIS NASTRAN    / MAY 18, 95 / PAGE    19
      NASTRAN TEST PROBLEM NO. T03-12-1C                                                                                            

                                                                                                                                    

          COSMIC / NASTRAN DMAP COMPILER - SOURCE LISTING                                                                           
                                                                                                                                    
                                                                                                                                    

      40  COND     LBL11,NOGENL $                                                 
+  *

      41  SMA3     GEI,KGGX/KGG/LUSET/NOGENL/NOSIMP $                             
+  *

      42  LABEL    LBL11 $                                                        
+  +

      43  GPSTGEN  KGG,SIL/GPST $                                                 
+  *

      44  PARAM    //*MPY*/NSKIP/0/0 $                                            
+  *

      45  GP4      CASECC,GEOM4,EQEXIN,GPDT,BGPDT,CSTM,GPST/RG,YS,USET,           
+  *
                   ASET,OGPST/LUSET/S,N,MPCF1/S,N,MPCF2/S,N,SINGLE/S,N,OMIT/      
                   S,N,REACT/S,N,NSKIP/S,N,REPEAT/S,N,NOSET/S,N,NOL/S,N,NOA/      
                   C,Y,ASETOUT/C,Y,AUTOSPC $                                      

      46  OFP      OGPST,,,,,//S,N,CARDNO $                                       
+  *

      47  COND     ERROR3,NOL $                                                   
+  *

      48  PURGE    KRR,KLR,DM,MLR,MR/REACT/GM/MPCF1/GO/OMIT/KFS/SINGLE/QG/NOSET $ 
+  *

      48  FLBMG    GEOM2,ECT,BGPDT,SIL,MPT,GEOM3,CSTM,USET,EQEXIN/USETF,USETS,AF, 
+  *
                   DKGG/S,N,NOGRAV/S,N,NOFREE/S,N,TILT $                          
+  *

      48  VEC      USETF/PV1/*G*/*X*/*Y* $                                        
+  *

      48  PARTN    KGG,PV1,/KXX,,,KYY $                                           
+  *

      48  PARTN    MGG,PV1,/MXX,,, $                                              
+  *

      48  PARTN    RG,PV1,/RX,,,/1 $                                              
+  *

      48  EQUIV    RX,RG $                                                        
+  *

      48  PARTN    AF,PV1,/,,AXY,AYY $                                            
+  *

      48  COND     MODAL1,NOGRAV $                                                
+  *

      48  PARTN    DKGG,PV1,/DKXX,,,DKYY $                                        
+  *

      48  COND     MODAL1,NOFREE $                                                
+  *

      48  VEC      USETF/PV2/*Y*/*FR*/*COMP* $                                    
+  *

      48  PARTN    AYY,,PV2/AFRY,,,/0 $                                           
+  *
1     HYDROELASTIC MODAL FORMULATION RESTART WITH NEW FLUID MODEL           /    95 SUN SOLARIS NASTRAN    / MAY 18, 95 / PAGE    20
      NASTRAN TEST PROBLEM NO. T03-12-1C                                                                                            

                                                                                                                                    

          COSMIC / NASTRAN DMAP COMPILER - SOURCE LISTING                                                                           
                                                                                                                                    
                                                                                                                                    

      48  PARTN    DKYY,PV2,/DKFRFR,,, $                                          
+  *

      48  LABEL    MODAL1 $                                                       
+  +

      48  LABEL    NEW1 $                                                         
+  +

      48  DPD      DYNAMICS,GPL,SIL,USET/GPLD,SILD,USETD,,,,,,,EED,EQDYN/LUSET/   
+  *
                   LUSETD/NOTFL/NODLT/NOPSDL/NOFRL/NONLFT/NOTRL/S,N,NOEED//NOUE $ 
+  *

      48  COND     ERROR2,NOEED $                                                 
+  *

      48  COMPOFF  NEW2,NEWMODE $                                                 

      48  PARAM    //*MPY*/CARDNO/0/0 $                                           
+  *

      48  COMPOFF  NOSTRUC,OLDSTR $                                               

      82  PURGE    DKAA/NOGRAV $                                                  
+  *

      82  COND     MODAL4,NOGRAV $                                                
+  *

      82  EQUIV    DKXX,DKNN/MPCF1 $                                              
+  *

      82  COND     MODAL2,MPCF2 $                                                 
+  *

      82  MCE2     USETS,GM,DKXX,,,/DKNN,,, $                                     
+  *

      82  LABEL    MODAL2 $                                                       
+  +

      82  EQUIV    DKNN,DKFF/SINGLE $                                             
+  *

      82  COND     MODAL3,SINGLE $                                                
+  *

      82  SCE1     USETS,DKNN,,,/DKFF,,,,, $                                      
+  *

      82  LABEL    MODAL3 $                                                       
+  +

      82  EQUIV    DKFF,DKAA/OMIT $                                               
+  *

      82  COND     MODAL4,OMIT $                                                  
+  *

      82  SMP2     USETS,GO,DKFF/DKAA $                                           
+  *

      82  LABEL    MODAL4 $                                                       
+  +

      82  GFSMA    AXY,AFRY,KYY,DKAA,DKFRFR,,,,,,USETF,PHIA,PHIG,LAMA/KMAT,MMAT,  
+  *
1     HYDROELASTIC MODAL FORMULATION RESTART WITH NEW FLUID MODEL           /    95 SUN SOLARIS NASTRAN    / MAY 18, 95 / PAGE    21
      NASTRAN TEST PROBLEM NO. T03-12-1C                                                                                            
0                                                                                                                                   
0         COSMIC / NASTRAN DMAP COMPILER - SOURCE LISTING                                                                           
                                                                                                                                    
                                                                                                                                    
                   GIH,PV4,/NOGRAV/NOFREE/V,Y,KCOMP/V,Y,COMPTYP/FORM=1/           
                   S,Y,LMODES $                                                   
+  *

      82  JUMP     OLD2 $                                                         
+  *

      82  LABEL    NEW2 $                                                         
+  +

      82  PARAM    //*MPY*/REPT/1/1 $                                             
+  *

      82  LABEL    OLD2 $                                                         
+  +

      82  CASE     CASECC,/CASE2/*REIGEN*/S,N,REPT/S,N,LOLP $                     
+  *
+  *

      82  PARAM    //*MPY*/NEIGV/1/-1 $                                           
+  *

      82  READ     KMAT,MMAT,,,EED,USETF,CASE2/LAMAT,PHIH,MH,OEIGH/*MODES*/       
+  *
                   S,N,NEIGV $                                                    
+  *

      82  OFP      LAMAT,OEIGH,,,,//S,N,CARDNO $                                  
+  *
+  *

      82  COND     FINIS,NEIGV $                                                  
+  *

      82  MPYAD    GIH,PHIH,/PHII/0/1/0 $                                         
+  *

      82  EQUIV    PHIH,PHIZ/NOFREE $                                             
+  *

      82  EQUIV    PHII,PHIY/NOFREE $                                             
+  *

      82  COND     MODAL5,NOFREE $                                                
+  *

      82  PARTN    PHIH,,PV4/PHIZ,PHIFR,,/0 $                                     
+  *

      82  MERGE    PHIFR,PHII,,,,PV2/PHIY/0 $                                     
+  *

      82  LABEL    MODAL5 $                                                       
+  +

      82  COND     ALLMODES,LMODES                                                
+  *

      82  TRAILER  PHIG//*STORE*/1/V,Y,LMODES $                                   
+  *

      82  TRAILER  QG//*STORE*/1/V,Y,LMODES $                                     
+  *

      82  LABEL    ALLMODES $                                                     
+  +

      82  MPYAD    PHIG,PHIZ,/PHIX/0/1/0 $                                        
+  *

      82  MPYAD    QG,PHIZ,/QX/0/1/0 $                                            
+  *
1     HYDROELASTIC MODAL FORMULATION RESTART WITH NEW FLUID MODEL           /    95 SUN SOLARIS NASTRAN    / MAY 18, 95 / PAGE    22
      NASTRAN TEST PROBLEM NO. T03-12-1C                                                                                            

                                                                                                                                    

          COSMIC / NASTRAN DMAP COMPILER - SOURCE LISTING                                                                           
                                                                                                                                    
                                                                                                                                    

      82  MERGE    PHIX,PHIY,,,,PV1/PHIGT/0 $                                     
+  *

      82  MERGE    QX,,,,,PV1/QGT/0 $                                             
+  *

      82  SDR2     CASE2,CSTM,MPT,DIT,EQEXIN,SIL,,,BGPDP,LAMAT,QGT,PHIGT,EST,,,   
+  *
                   PCOMPS/,OQG1,OPHIG,OES1,OEF1,PPHIG,OES1L,OEF1L/*REIG* $        

      83  OFP      OPHIG,OQG1,OEF1,OES1,OEF1L,OES1L//S,N,CARDNO $                 
+  *

      84  SCAN     CASECC,OES1,OEF1,OES1L,OEF1L/OESF1,OESF1L/*RF* $               
+  *

      85  OFP      OESF1,OESF1L,,,,//S,N,CARDNO $                                 
+  *

      86  GPFDR    CASECC,PHIG,KELM,KDICT,ECT,EQEXIN,GPECT,LAMA,/ONRGY1,/*REIG* $ 
+  *

      87  OFP      ONRGY1,,,,,//S,N,CARDNO $                                      
+  *

      88  PURGE    KDICT,KELM/ALWAYS $                                            
+  *

      89  COND     P2,JUMPPLOT $                                                  

      90  PLOT     PLTPAR,GPSETS,ELSETS,CASECC,BGPDT,EQEXIN,SIP,,PPHIG,GPECT,OES1,
                   OES1L,/PLOTX2/NSIL/LUSEP/JUMPPLOT/PLTFLG/S,N,PFILE $           

      91  PRTMSG   PLOTX2// $                                                     

      92  LABEL    P2 $                                                           
+  +

      93  JUMP     FINIS $                                                        
+  *

      94  LABEL    ERROR1 $                                                       
+  +

      95  PRTPARM  //-1/*MODES* $                                                 
+  *

      96  LABEL    ERROR2 $                                                       
+  +

      97  PRTPARM  //-2/*MODES* $                                                 
+  *

      98  LABEL    ERROR3 $                                                       
+  +

      99  PRTPARM  //-3/*MODES* $                                                 
+  *

     100  LABEL    ERROR4 $                                                       
+  +

     101  PRTPARM  //-4/*MODES* $                                                 
+  *
1     HYDROELASTIC MODAL FORMULATION RESTART WITH NEW FLUID MODEL           /    95 SUN SOLARIS NASTRAN    / MAY 18, 95 / PAGE    23
      NASTRAN TEST PROBLEM NO. T03-12-1C                                                                                            

                                                                                                                                    

          COSMIC / NASTRAN DMAP COMPILER - SOURCE LISTING                                                                           
                                                                                                                                    
                                                                                                                                    

     102  LABEL    FINIS $                                                        
+  +

     103  PURGE    DUMMY/ALWAYS $                                                 
+  *

     104  END      $                                                              
+  *
0
0  + INDICATES DMAP INSTRUCTIONS THAT ARE PROCESSED ONLY AT DMAP COMPILATION TIME.
0  * INDICATES DMAP INSTRUCTIONS THAT ARE FLAGGED FOR EXECUTION IN THIS MODIFIED RESTART.
1     HYDROELASTIC MODAL FORMULATION RESTART WITH NEW FLUID MODEL           /    95 SUN SOLARIS NASTRAN    / MAY 18, 95 / PAGE    24
      NASTRAN TEST PROBLEM NO. T03-12-1C                                                                                            
0                                                                                                                                   
0THE FOLLOWING FILES FROM THE OLD PROBLEM TAPE WERE USED TO INITIATE RESTART

    FILE NAME  REEL NO.  FILE NO.

     GM        (PURGED)
     GO               1        91
     LAMA             1       100
     PHIA             1       101
     PHIG             1       105
     QG               1       106
     XVPS             1       157
1     HYDROELASTIC MODAL FORMULATION RESTART WITH NEW FLUID MODEL           /    95 SUN SOLARIS NASTRAN    / MAY 18, 95 / PAGE    25
      NASTRAN TEST PROBLEM NO. T03-12-1C                                                                                            
0                                                                                                                                   
0*** USER INFORMATION MESSAGES FROM RESEQUENCING PROCESSOR - BANDIT     (CRI= 1,  MTH= 3,  MPC= 0,  DEP=-1,  PCH=-1)

                               BEFORE RESEQUENCING - - -
                                        BANDWIDTH            7
                                        PROFILE             67
                                        MAX WAVEFRONT        7
                                        AVG WAVEFRONT    4.188
                                        RMS WAVEFRONT    4.603
                                        RMS BANDWIDTH    4.657

                               AFTER RESEQUENCING BY GIBBS-POOLE-STOCKMEYER (GPS) ALGORITHM - - -
                                        BANDWIDTH            6
                                        PROFILE             60
                                        MAX WAVEFRONT        6
                                        AVG WAVEFRONT    3.750
                                        RMS WAVEFRONT    4.062
                                        RMS BANDWIDTH    4.062


                                                     *** BANDIT SUMMARY ***

                                                                        BEFORE     AFTER
[...]


                                    (* NORMAL TERMINATION)
0*** SYSTEM WARNING MESSAGE 2173, PARTITIONING VECTOR FILE  103 CONTAINS         1 COLUMNS.
      THE FIRST COLUMN WILL BE USED, NOT THE REQUESTED COLUMN        -1
1     HYDROELASTIC MODAL FORMULATION RESTART WITH NEW FLUID MODEL           /    95 SUN SOLARIS NASTRAN    / MAY 18, 95 / PAGE    29
      NASTRAN TEST PROBLEM NO. T03-12-1C                                                                                            
0     MODES WITH FLUID INCLUDED                                                                              SUBCASE 2              
      EIGENVALUE = -0.104812E+02    (CYCLIC FREQUENCY =  5.152587E-01 HZ)

                                         R E A L   E I G E N V E C T O R   N O .          1
 
      POINT ID.   TYPE          T1             T2             T3             R1             R2             R3
             1      S     -4.196715E-03  -4.198343E-03  -4.198359E-03  -4.196735E-03   7.456232E-01   7.456703E-01                  
             7      S      7.456706E-01   7.456244E-01                                                                              
           101      G      0.0            0.0            9.999965E-01   3.454241E-07   0.0            0.0                           
           102      G     -1.108577E-07   6.240699E-07   9.999974E-01   3.312281E-07  -1.710972E-07   1.384055E-07                  
           103      G      0.0            0.0            1.000001E+00   4.732937E-07   0.0            0.0                           
           104      G     -1.155286E-07  -6.249048E-07   1.000002E+00   4.871760E-07  -3.332208E-07  -1.933627E-07                  
           105      G      0.0            0.0            9.999975E-01  -3.129556E-07   0.0            0.0                           
           106      G     -4.735254E-06  -2.830915E-06   9.999987E-01   4.771008E-07  -4.507540E-07  -1.381054E-07                  
           107      G      0.0            0.0            1.000002E+00  -4.590388E-07   0.0            0.0                           
           108      G     -4.729358E-06  -6.679182E-06   1.000003E+00   9.048853E-07  -4.925324E-07  -7.872109E-07                  
1     HYDROELASTIC MODAL FORMULATION RESTART WITH NEW FLUID MODEL           /    95 SUN SOLARIS NASTRAN    / MAY 18, 95 / PAGE    30
      NASTRAN TEST PROBLEM NO. T03-12-1C                                                                                            
0     MODES WITH FLUID INCLUDED                                                                              SUBCASE 2              
      EIGENVALUE =  0.176033E+03    (CYCLIC FREQUENCY =  2.111627E+00 HZ)

                                         R E A L   E I G E N V E C T O R   N O .          2
 
      POINT ID.   TYPE          T1             T2             T3             R1             R2             R3
             1      S     -1.089574E-03  -1.318649E-03   1.240649E-03   1.066003E-03  -7.836779E-01  -8.605792E-01                  
             7      S      7.522578E-01   1.000000E+00                                                                              
           101      G      0.0            0.0            1.423968E-01  -2.441491E-02   0.0            0.0                           
           102      G     -3.339240E-06   1.543767E-06   1.423956E-01  -2.455681E-02  -4.987180E-03   1.672310E-03                  
           103      G      0.0            0.0           -1.423414E-01  -2.441516E-02   0.0            0.0                           
           104      G      3.639895E-06   1.879903E-06  -1.423365E-01  -2.455686E-02   4.986548E-03   1.672376E-03                  
           105      G      0.0            0.0            1.424065E-01   2.305757E-02   0.0            0.0                           
           106      G     -8.006701E-06   2.847074E-01   1.424008E-01  -4.133607E-02  -1.233004E-03   2.770622E-02                  
           107      G      0.0            0.0           -1.423493E-01   2.305772E-02   0.0            0.0                           
           108      G      9.758537E-06   2.847087E-01  -1.423418E-01  -4.133624E-02   1.233590E-03   2.770649E-02                  
1     HYDROELASTIC MODAL FORMULATION RESTART WITH NEW FLUID MODEL           /    95 SUN SOLARIS NASTRAN    / MAY 18, 95 / PAGE    31
      NASTRAN TEST PROBLEM NO. T03-12-1C                                                                                            
0     MODES WITH FLUID INCLUDED                                                                              SUBCASE 2              
      EIGENVALUE =  0.834630E+03    (CYCLIC FREQUENCY =  4.597981E+00 HZ)

                                         R E A L   E I G E N V E C T O R   N O .          3
 
      POINT ID.   TYPE          T1             T2             T3             R1             R2             R3
             1      S     -7.477579E-05  -1.473691E-04   1.210029E-04   6.686650E-05   1.000000E+00  -7.266733E-01                  
             7      S      5.531097E-01  -6.531781E-01                                                                              
           101      G      0.0            0.0            2.538065E-02  -4.341134E-03   0.0            0.0                           
           102      G     -7.986006E-07   2.085518E-06   2.538081E-02  -4.365923E-03  -8.869038E-04   2.977029E-04                  
           103      G      0.0            0.0           -2.525069E-02  -4.340946E-03   0.0            0.0                           
           104      G      2.488028E-07  -1.347207E-06  -2.524247E-02  -4.365504E-03   8.849464E-04   2.967743E-04                  
           105      G      0.0            0.0            2.538400E-02   4.099587E-03   0.0            0.0                           
           106      G     -1.264322E-05   5.061806E-02   2.538467E-02  -7.348768E-03  -2.204187E-04   4.926383E-03                  
           107      G      0.0            0.0           -2.524626E-02   4.099271E-03   0.0            0.0                           
           108      G     -1.372388E-05   5.060777E-02  -2.523883E-02  -7.347644E-03   2.181200E-04   4.924680E-03                  
1     HYDROELASTIC MODAL FORMULATION RESTART WITH NEW FLUID MODEL           /    95 SUN SOLARIS NASTRAN    / MAY 18, 95 / PAGE    32
      NASTRAN TEST PROBLEM NO. T03-12-1C                                                                                            
0     MODES WITH FLUID INCLUDED                                                                              SUBCASE 2              
      EIGENVALUE =  0.116135E+04    (CYCLIC FREQUENCY =  5.423775E+00 HZ)

                                         R E A L   E I G E N V E C T O R   N O .          4
 
      POINT ID.   TYPE          T1             T2             T3             R1             R2             R3
             1      S     -4.310606E-05  -4.841381E-05  -4.685823E-05   1.464273E-05   1.000000E+00   2.169613E-02                  
             7      S     -8.942738E-01   7.431428E-01                                                                              
           101      G      0.0            0.0            5.083402E-02  -8.656656E-03   0.0            0.0                           
           102      G     -7.603259E-07  -5.829648E-07   5.083411E-02  -8.707376E-03  -1.768307E-03   5.927869E-04                  
           103      G      0.0            0.0           -5.012139E-02  -8.656824E-03   0.0            0.0                           
           104      G      1.355888E-06   1.331808E-06  -5.012491E-02  -8.707613E-03   1.769167E-03   5.932975E-04                  
           105      G      0.0            0.0            5.083615E-02   8.175526E-03   0.0            0.0                           
           106      G      3.220259E-06   1.009514E-01   5.083398E-02  -1.465713E-02  -4.365693E-04   9.823846E-03                  
           107      G      0.0            0.0           -5.012777E-02   8.175734E-03   0.0            0.0                           
           108      G      1.128423E-05   1.009572E-01  -5.012925E-02  -1.465777E-02   4.379282E-04   9.824821E-03                  
1     HYDROELASTIC MODAL FORMULATION RESTART WITH NEW FLUID MODEL           /    95 SUN SOLARIS NASTRAN    / MAY 18, 95 / PAGE    33
      NASTRAN TEST PROBLEM NO. T03-12-1C                                                                                            
0     MODES WITH FLUID INCLUDED                                                                              SUBCASE 2              
      EIGENVALUE =  0.490760E+04    (CYCLIC FREQUENCY =  1.114949E+01 HZ)

                                         R E A L   E I G E N V E C T O R   N O .          5
 
      POINT ID.   TYPE          T1             T2             T3             R1             R2             R3
             1      S      1.141230E-04   9.604431E-05  -1.143472E-04  -1.193208E-04   4.122835E-01  -7.719182E-01                  
             7      S      6.500132E-02   1.000000E+00                                                                              
           101      G      0.0            0.0           -8.004945E-02   1.377594E-02   0.0            0.0                           
           102      G      7.070669E-08   3.116940E-06  -8.001891E-02   1.385136E-02   2.807270E-03  -9.421095E-04                  
           103      G      0.0            0.0            8.065779E-02   1.377629E-02   0.0            0.0                           
           104      G     -1.317532E-06   3.626825E-06   8.061855E-02   1.385132E-02  -2.805583E-03  -9.419278E-04                  
           105      G      0.0            0.0           -8.003400E-02  -1.300731E-02   0.0            0.0                           
           106      G     -1.550831E-05  -1.605611E-01  -8.001295E-02   2.331038E-02   6.957188E-04  -1.562651E-02                  
           107      G      0.0            0.0            8.063955E-02  -1.300747E-02   0.0            0.0                           
           108      G      2.073133E-05  -1.605601E-01   8.061225E-02   2.331030E-02  -6.958817E-04  -1.562641E-02                  
1     HYDROELASTIC MODAL FORMULATION RESTART WITH NEW FLUID MODEL           /    95 SUN SOLARIS NASTRAN    / MAY 18, 95 / PAGE    34
      NASTRAN TEST PROBLEM NO. T03-12-1C                                                                                            
0     MODES WITH FLUID INCLUDED                                                                              SUBCASE 2              
      EIGENVALUE =  0.490102E+06    (CYCLIC FREQUENCY =  1.114201E+02 HZ)

                                         R E A L   E I G E N V E C T O R   N O .          6
 
      POINT ID.   TYPE          T1             T2             T3             R1             R2             R3
             1      S     -1.970592E-04   1.761128E-05   1.600590E-05  -2.000627E-04   9.931903E-01  -2.098567E-02                  
             7      S     -1.255511E-02   1.000000E+00                                                                              
           101      G      0.0            0.0           -3.910480E-01  -2.565263E-04   0.0            0.0                           
           102      G     -8.629104E-04  -3.391468E-03  -3.938311E-01  -2.874254E-04   6.227941E-04  -4.616518E-04                  
           103      G      0.0            0.0           -3.951081E-01  -2.765423E-05   0.0            0.0                           
           104      G     -4.805087E-04  -3.264297E-03  -3.971325E-01  -2.873926E-04   2.672404E-04  -4.038229E-04                  
           105      G      0.0            0.0           -3.914720E-01   1.260058E-05   0.0            0.0                           
           106      G      6.927263E-04  -7.342090E-04  -3.934591E-01  -2.837668E-04  -3.237614E-04  -4.231622E-05                  
           107      G      0.0            0.0           -3.947376E-01  -1.006347E-04   0.0            0.0                           
           108      G     -6.035462E-04  -7.878556E-04  -3.963023E-01  -2.460293E-04  -2.948799E-05  -9.895664E-05                  
1     HYDROELASTIC MODAL FORMULATION RESTART WITH NEW FLUID MODEL           /    95 SUN SOLARIS NASTRAN    / MAY 18, 95 / PAGE    35
      NASTRAN TEST PROBLEM NO. T03-12-1C                                                                                            
0     MODES WITH FLUID INCLUDED                                                                              SUBCASE 2              
      EIGENVALUE = -0.104812E+02    (CYCLIC FREQUENCY =  5.152587E-01 HZ)

                               F O R C E S   O F   S I N G L E - P O I N T   C O N S T R A I N T
 
      POINT ID.   TYPE          T1             T2             T3             R1             R2             R3
           101      G     -2.920079E-02  -1.405203E-01   0.0            0.0            1.048140E-04  -2.934376E-05                  
           103      G     -1.925119E-02   1.412902E-01   0.0            0.0            9.417887E-05   1.107932E-04                  
           105      G      3.320762E+00   1.309230E-04   0.0            0.0            0.0            3.595348E-04                  
           107      G      3.313829E+00   2.334454E-04   0.0            0.0            0.0            8.086335E-04                  
1     HYDROELASTIC MODAL FORMULATION RESTART WITH NEW FLUID MODEL           /    95 SUN SOLARIS NASTRAN    / MAY 18, 95 / PAGE    36
      NASTRAN TEST PROBLEM NO. T03-12-1C                                                                                            
0     MODES WITH FLUID INCLUDED                                                                              SUBCASE 2              
      EIGENVALUE =  0.176033E+03    (CYCLIC FREQUENCY =  2.111627E+00 HZ)

                               F O R C E S   O F   S I N G L E - P O I N T   C O N S T R A I N T
 
      POINT ID.   TYPE          T1             T2             T3             R1             R2             R3
           101      G      4.081363E+00  -6.607457E-01   0.0            0.0           -2.066534E-01  -2.454852E+00                  
           103      G     -4.960736E+00  -7.114383E-01   0.0            0.0            2.071333E-01  -2.454848E+00                  
           105      G      4.391825E+00  -1.090730E+01   0.0            0.0            0.0           -3.498320E+01                  
           107      G     -5.368518E+00  -1.090733E+01   0.0            0.0            0.0           -3.498332E+01                  
1     HYDROELASTIC MODAL FORMULATION RESTART WITH NEW FLUID MODEL           /    95 SUN SOLARIS NASTRAN    / MAY 18, 95 / PAGE    37
      NASTRAN TEST PROBLEM NO. T03-12-1C                                                                                            
0     MODES WITH FLUID INCLUDED                                                                              SUBCASE 2              
      EIGENVALUE =  0.834630E+03    (CYCLIC FREQUENCY =  4.597981E+00 HZ)

                               F O R C E S   O F   S I N G L E - P O I N T   C O N S T R A I N T
 
      POINT ID.   TYPE          T1             T2             T3             R1             R2             R3
           101      G      8.218288E-01  -5.170307E-01   0.0            0.0           -3.668073E-02  -4.365101E-01                  
           103      G     -1.502780E+00   2.651130E-01   0.0            0.0            3.763374E-02  -4.360923E-01                  
           105      G      8.508908E+00  -1.939131E+00   0.0            0.0            0.0           -6.219508E+00                  
           107      G      1.012667E+01  -1.938853E+00   0.0            0.0            0.0           -6.218279E+00                  
1     HYDROELASTIC MODAL FORMULATION RESTART WITH NEW FLUID MODEL           /    95 SUN SOLARIS NASTRAN    / MAY 18, 95 / PAGE    38
      NASTRAN TEST PROBLEM NO. T03-12-1C                                                                                            
0     MODES WITH FLUID INCLUDED                                                                              SUBCASE 2              
      EIGENVALUE =  0.116135E+04    (CYCLIC FREQUENCY =  5.423775E+00 HZ)

                               F O R C E S   O F   S I N G L E - P O I N T   C O N S T R A I N T
 
      POINT ID.   TYPE          T1             T2             T3             R1             R2             R3
           101      G      9.389564E-01   3.850547E-02   0.0            0.0           -7.323253E-02  -8.703894E-01                  
           103      G     -1.082094E+00  -3.674831E-01   0.0            0.0            7.285780E-02  -8.706104E-01                  
           105      G     -2.482857E+00  -3.867534E+00   0.0            0.0            0.0           -1.240441E+01                  
           107      G     -7.630983E+00  -3.867690E+00   0.0            0.0            0.0           -1.240509E+01                  
1     HYDROELASTIC MODAL FORMULATION RESTART WITH NEW FLUID MODEL           /    95 SUN SOLARIS NASTRAN    / MAY 18, 95 / PAGE    39
      NASTRAN TEST PROBLEM NO. T03-12-1C                                                                                            
0     MODES WITH FLUID INCLUDED                                                                              SUBCASE 2              
      EIGENVALUE =  0.490760E+04    (CYCLIC FREQUENCY =  1.114949E+01 HZ)

                               F O R C E S   O F   S I N G L E - P O I N T   C O N S T R A I N T
 
      POINT ID.   TYPE          T1             T2             T3             R1             R2             R3
           101      G     -4.815020E+00  -7.028251E-01   0.0            0.0            1.197666E-01   1.382730E+00                  
           103      G      7.583232E+00  -9.583079E-01   0.0            0.0           -1.208600E-01   1.382595E+00                  
           105      G      1.287161E+01   6.150995E+00   0.0            0.0            0.0            1.972747E+01                  
           107      G     -1.727174E+01   6.150958E+00   0.0            0.0            0.0            1.972728E+01                  
1     HYDROELASTIC MODAL FORMULATION RESTART WITH NEW FLUID MODEL           /    95 SUN SOLARIS NASTRAN    / MAY 18, 95 / PAGE    40
      NASTRAN TEST PROBLEM NO. T03-12-1C                                                                                            
0     MODES WITH FLUID INCLUDED                                                                              SUBCASE 2              
      EIGENVALUE =  0.490102E+06    (CYCLIC FREQUENCY =  1.114201E+02 HZ)

                               F O R C E S   O F   S I N G L E - P O I N T   C O N S T R A I N T
 
      POINT ID.   TYPE          T1             T2             T3             R1             R2             R3
           101      G      1.900968E+03   8.768158E+02   0.0            0.0           -3.778862E-01   5.449124E-01                  
           103      G      4.145168E+02   7.048458E+02   0.0            0.0           -2.416977E-01   4.823396E-01                  
           105      G     -7.731306E+02   3.700481E-02   0.0            0.0            0.0            2.116406E-01                  
           107      G      1.393967E+02   3.219602E-02   0.0            0.0            0.0            1.761147E-01                  




                                        * * * END OF JOB * * *
1
 JOB TITLE =  HYDROELASTIC MODAL FORMULATION RESTART WITH NEW FLUID MODEL        
 DATE:  5/18/95
 END TIME: 10:11: 6
 TOTAL WALL CLOCK TIME      3 SEC.
 
