





                                  ****
                                *      *
                               *        *
                               *  N A S T R A N
                               *        *
                                *      *
                                  ****


                             SUN COMPUTER SYSTEMS    
                                SOLARIS VERSION

                          SYSTEM RELEASE -  1995 ED.

                                DISTRIBUTED BY

         COMPUTER SOFTWARE MANAGEMENT AND INFORMATION CENTER (COSMIC)
                 UNIVERSITY OF GEORGIA, ATHENS, GEORGIA 30602
                 PHONE: (706)542-3265      FAX: (706)542-4807
1                                                                           /    95 SUN SOLARIS NASTRAN    / MAY 18, 95 / PAGE     2
                                                                                                                                    
0                                                                                                                                   
                                                                                                         
                                                                                                         
                         INSTALLATION CENTER USER INFORMATION GIVEN IN THIS SECTION                      
                                                                                                         
                                     *********************************************                       
                                     *                                           *                       
                                     *  PLEASE READ THE COMMENT IN DEMO PROBLEM  *                       
                                     *  D01002A ABOUT SYSTEM TIMING CONSTANTS    *                       
                                     *                                           *                       
                                     *********************************************                       
                                                                                                         
                         ===X=    TOP OF PAGE REQUEST IF 'X' IS REPLACED BY '='                          
                                                                                                         
1                                                                           /    95 SUN SOLARIS NASTRAN    / MAY 18, 95 / PAGE     3
                                                                                                                                    
0                                                                                                                                   
0*** USER INFORMATION MESSAGE 225, GINO TIME CONSTANTS ARE BEING COMPUTED
     (SEE NASINFO FILE FOR ELIMINATION OF THESE COMPUTATIONS)
1                                                                           /    95 SUN SOLARIS NASTRAN    / MAY 18, 95 / PAGE     4
                                                                                                                                    
0        N A S T R A N    E X E C U T I V E    C O N T R O L    D E C K    E C H O                                                  
0                                                                                                                                   
                                                                                                                                    
                                                                                                                                    
     ID    T05031A,NASTRAN                                                           
     SOL   5,0                                                                       
     APP   DISP                                                                      
     TIME  200                                                                       
     CEND                                                                            


0*** USER INFORMATION MESSAGE, TURN DIAG 48 ON FOR NASTRAN RELEASE NEWS, DIAG DEFINITION, NEW DMAP
         MODULES AND NEW BULKDATA CARDS INFORMATION
1     BUCKLING ANALYSIS USING CIS2D8 ELEMENTS                               /    95 SUN SOLARIS NASTRAN    / MAY 18, 95 / PAGE     5
      NASTRAN TEST PROBLEM NO. T05-03-1A                                                                                            
0                                                                                                                                   
0                                        C A S E    C O N T R O L   D E C K   E C H O                                               
                 CARD                                                                                                               
                 COUNT                                                                                                              
                  1      TITLE    = BUCKLING ANALYSIS USING CIS2D8 ELEMENTS                              
                  2      SUBTITLE = NASTRAN TEST PROBLEM NO. T05-03-1A                                   
                  3      STRESS   = ALL                                                                  
                  4      DISP     = ALL                                                                  
                  5      OLOAD    = ALL                                                                  
                  6      SUBCASE 1                                                                       
                  7        LABEL = STATIC SOLUTION                                                       
                  8        LOAD  = 4                                                                     
                  9        TEMP(LOAD)=3                                                                  
                 10      SUBCASE 2                                                                       
                 11        LABEL = BUCKLING SOLUTION                                                     
                 12        METHOD= 1                                                                     
                 13      BEGIN BULK                                                                      


                        (NO. OF UNSORTED BULK DATA CARDS READ =    49, INCLUDING   0 COMMENT CARDS)
0*** USER INFORMATION MESSAGE 207, BULK DATA DECK IS NOT SORTED. NASTRAN WILL RE-ORDER THE INPUT DECK.
1     BUCKLING ANALYSIS USING CIS2D8 ELEMENTS                               /    95 SUN SOLARIS NASTRAN    / MAY 18, 95 / PAGE     6
      NASTRAN TEST PROBLEM NO. T05-03-1A                                                                                            
0                                                                                                                                   
0                                                 S O R T E D   B U L K    D A T A    E C H O                                       
                     CARD                                                                                                           
                     COUNT        ---1--- +++2+++ ---3--- +++4+++ ---5--- +++6+++ ---7--- +++8+++ ---9--- +++10+++                  
                    1-        CIS2D8  1       1       1       7       9       3       4       8       +C1     
                    2-        +C1     6       2       3                                                       
                    3-        CIS2D8  2       1       7       13      15      9       10      14      +C2     
                    4-        +C2     12      8       3                                                       
                    5-        CIS2D8  3       1       13      19      21      15      16      20      +C3     
                    6-        +C3     18      14      3                                                       
                    7-        CIS2D8  4       1       19      25      27      21      22      26      +C4     
                    8-        +C4     24      20      3                                                       
                    9-        CIS2D8  5       1       25      31      33      27      28      32      +C5     
                   10-        +C5     30      26      3                                                       
                   11-        EIGB    1       INV     5.      10.     1       1       0               +EIGB   
                   12-        +EIGB   MAX                                                                     
                   13-        FORCE   1       31      0       166.6667-1.     0.      0.                      
                   14-        FORCE   1       32      0       666.6666-1.     0.      0.                      
                   15-        FORCE   1       33      0       166.6667-1.     0.      0.                      
                   16-        GRAV    2               5.      0.      1.      0.                              
                   17-        GRDSET                                                  3456                    
                   18-        GRID    1               0.      0.                      123456                  
                   19-        GRID    2               0.      .5                      123456                  
                   20-        GRID    3               0.      1.                      123456                  
                   21-        GRID    4               1.      0.                                              
                   22-        GRID    6               1.      1.                                              
                   23-        GRID    7               2.      0.                                              
                   24-        GRID    8               2.      .5                                              
                   25-        GRID    9               2.      1.                                              
                   26-        GRID    10              3.      0.                                              
                   27-        GRID    12              3.      1.                                              
                   28-        GRID    13              4.      0.                                              
                   29-        GRID    14              4.      .5                                              
                   30-        GRID    15              4.      1.                                              
                   31-        GRID    16              5.      0.                                              
                   32-        GRID    18              5.      1.                                              
                   33-        GRID    19              6.      0.                                              
                   34-        GRID    20              6.      .5                                              
                   35-        GRID    21              6.      1.                                              
                   36-        GRID    22              7.      0.                                              
                   37-        GRID    24              7.      1.                                              
                   38-        GRID    25              8.      0.                                              
                   39-        GRID    26              8.      .5                                              
                   40-        GRID    27              8.      1.                                              
                   41-        GRID    28              9.      0.                                              
                   42-        GRID    30              9.      1.                                              
                   43-        GRID    31              10.     0.                                              
                   44-        GRID    32              10.     .5                                              
                   45-        GRID    33              10.     1.                                              
                   46-        LOAD    4       1.      1.      1       1.      2                               
                   47-        MAT1    1       3.+7            .3      7.324-4 .001    5.                      
1     BUCKLING ANALYSIS USING CIS2D8 ELEMENTS                               /    95 SUN SOLARIS NASTRAN    / MAY 18, 95 / PAGE     7
      NASTRAN TEST PROBLEM NO. T05-03-1A                                                                                            

                                                                                                                                    

                                                  S O R T E D   B U L K    D A T A    E C H O                                       
                     CARD                                                                                                           
                     COUNT        ---1--- +++2+++ ---3--- +++4+++ ---5--- +++6+++ ---7--- +++8+++ ---9--- +++10+++                  
                   48-        PIS2D8  1       1       .1                                                      
                   49-        TEMPD   3       20.                                                             
                              ENDDATA
1     BUCKLING ANALYSIS USING CIS2D8 ELEMENTS                               /    95 SUN SOLARIS NASTRAN    / MAY 18, 95 / PAGE     8
      NASTRAN TEST PROBLEM NO. T05-03-1A                                                                                            
0                                                                                                                                   
0*** USER INFORMATION MESSAGES FROM RESEQUENCING PROCESSOR - BANDIT     (CRI= 1,  MTH= 3,  MPC= 0,  DEP=-1,  PCH=-1)

                               BEFORE RESEQUENCING - - -
                                        BANDWIDTH            8
                                        PROFILE            156
                                        MAX WAVEFRONT        8
                                        AVG WAVEFRONT    5.571
                                        RMS WAVEFRONT    5.868
                                        RMS BANDWIDTH    5.868

                               AFTER RESEQUENCING BY GIBBS-POOLE-STOCKMEYER (GPS) ALGORITHM - - -
                                        BANDWIDTH            8
                                        PROFILE            156
                                        MAX WAVEFRONT        8
                                        AVG WAVEFRONT    5.571
                                        RMS WAVEFRONT    5.868
                                        RMS BANDWIDTH    5.868


                                                     *** BANDIT SUMMARY ***

                                                                        BEFORE     AFTER
                                        BANDWIDTH (B)                        8         8
                                        PROFILE (P)                        156       156
                                        MAXIMUM WAVEFRONT (C-MAX)            8         8
                                        AVERAGE WAVEFRONT (C-AVG)        5.571     5.571
                                        RMS WAVEFRONT (C-RMS)            5.868     5.868
                                        RMS BANDWITCH (B-RMS)            5.868     5.868
                                        NUMBER OF GRID POINTS (N)                     28
                                        NUMBER OF ELEMENTS (NON-RIGID)                 5
                                        NUMBER OF RIGID ELEMENTS PROCESSED*            0
                                        NUMBER OF MPC  EQUATIONS PROCESSED*            0
                                        NUMBER OF COMPONENTS                           1
                                        MAXIMUM NODAL DEGREE                          12
                                        MINIMUM NODAL DEGREE                           7
                                        NUMBER OF UNIQUE EDGES                       128
                                        MATRIX DENSITY, PERCENT                   36.224
                                        NUMBER OF POINTS OF ZERO DEGREE                0
                                        BANDIT OPEN CORE                         1998969
                                        CRITERION*                         RMS WAVEFRONT
                                        METHOD USED*                                 GPS

                               (* THESE DEFAULT OPTIONS CAN BE OVERRIDDEN BY THE NASTRAN CARD)


                               BANDIT FINDS GRID POINT RE-SEQUENCING NOT NECESSARY
0         **NO ERRORS FOUND - EXECUTE NASTRAN PROGRAM**
0*** USER INFORMATION MESSAGE 238, TURN DIAG 38 ON FOR ADDITIONAL ELEMENT PROCESSING INFORMATION

0*** USER INFORMATION MESSAGE 3113,
     EMG MODULE PROCESSING DOUBLE PRECISION IS2D8    ELEMENTS (ELEMENT TYPE  80) STARTING WITH ID        1
0*** USER INFORMATION MESSAGE 3035
     FOR SUBCASE NUMBER     1, EPSILON SUB E =  -2.0645820E-15
1     BUCKLING ANALYSIS USING CIS2D8 ELEMENTS                               /    95 SUN SOLARIS NASTRAN    / MAY 18, 95 / PAGE     9
      NASTRAN TEST PROBLEM NO. T05-03-1A                                                                                            
0     STATIC SOLUTION                                                                                        SUBCASE 1              
 
                                             D I S P L A C E M E N T   V E C T O R
 
      POINT ID.   TYPE          T1             T2             T3             R1             R2             R3
             1      G      0.0            0.0            0.0            0.0            0.0            0.0                           
             2      G      0.0            0.0            0.0            0.0            0.0            0.0                           
             3      G      0.0            0.0            0.0            0.0            0.0            0.0                           
             4      G      1.622962E-02  -8.120386E-03   0.0            0.0            0.0            0.0                           
             6      G      1.622911E-02   8.120960E-03   0.0            0.0            0.0            0.0                           
             7      G      3.043082E-02  -6.760248E-03   0.0            0.0            0.0            0.0                           
             8      G      3.060163E-02   1.034503E-06   0.0            0.0            0.0            0.0                           
             9      G      3.042986E-02   6.762360E-03   0.0            0.0            0.0            0.0                           
            10      G      4.532645E-02  -7.622790E-03   0.0            0.0            0.0            0.0                           
            12      G      4.532513E-02   7.627225E-03   0.0            0.0            0.0            0.0                           
            13      G      6.000895E-02  -7.467928E-03   0.0            0.0            0.0            0.0                           
            14      G      5.998284E-02   3.694906E-06   0.0            0.0            0.0            0.0                           
            15      G      6.000734E-02   7.475333E-03   0.0            0.0            0.0            0.0                           
            16      G      7.468224E-02  -7.548220E-03   0.0            0.0            0.0            0.0                           
            18      G      7.468044E-02   7.559077E-03   0.0            0.0            0.0            0.0                           
            19      G      8.933464E-02  -7.533899E-03   0.0            0.0            0.0            0.0                           
            20      G      8.934185E-02   7.323888E-06   0.0            0.0            0.0            0.0                           
            21      G      8.933268E-02   7.548556E-03   0.0            0.0            0.0            0.0                           
            22      G      1.040063E-01  -7.542063E-03   0.0            0.0            0.0            0.0                           
            24      G      1.040043E-01   7.560754E-03   0.0            0.0            0.0            0.0                           
            25      G      1.186756E-01  -7.537853E-03   0.0            0.0            0.0            0.0                           
            26      G      1.186726E-01   1.143702E-05   0.0            0.0            0.0            0.0                           
            27      G      1.186735E-01   7.560730E-03   0.0            0.0            0.0            0.0                           
            28      G      1.333415E-01  -7.536254E-03   0.0            0.0            0.0            0.0                           
            30      G      1.333394E-01   7.563390E-03   0.0            0.0            0.0            0.0                           
            31      G      1.480072E-01  -7.534420E-03   0.0            0.0            0.0            0.0                           
            32      G      1.480072E-01   1.571354E-05   0.0            0.0            0.0            0.0                           
            33      G      1.480051E-01   7.565848E-03   0.0            0.0            0.0            0.0                           
1     BUCKLING ANALYSIS USING CIS2D8 ELEMENTS                               /    95 SUN SOLARIS NASTRAN    / MAY 18, 95 / PAGE    10
      NASTRAN TEST PROBLEM NO. T05-03-1A                                                                                            
0     STATIC SOLUTION                                                                                        SUBCASE 1              
 
                                                     L O A D   V E C T O R
 
      POINT ID.   TYPE          T1             T2             T3             R1             R2             R3
             1      G     -1.071429E+04  -2.142858E+04   0.0            0.0            0.0            0.0                           
             2      G     -4.285715E+04  -3.662117E-03   0.0            0.0            0.0            0.0                           
             3      G     -1.071429E+04   2.142858E+04   0.0            0.0            0.0            0.0                           
             4      G     -7.812500E-04  -8.571430E+04   0.0            0.0            0.0            0.0                           
             6      G      1.562500E-03   8.571430E+04   0.0            0.0            0.0            0.0                           
             7      G     -9.765625E-04  -4.285715E+04   0.0            0.0            0.0            0.0                           
             8      G      0.0           -6.542983E-03   0.0            0.0            0.0            0.0                           
             9      G     -2.929688E-03   4.285716E+04   0.0            0.0            0.0            0.0                           
            10      G     -7.812500E-04  -8.571430E+04   0.0            0.0            0.0            0.0                           
            12      G      1.562500E-03   8.571430E+04   0.0            0.0            0.0            0.0                           
            13      G     -9.765625E-04  -4.285715E+04   0.0            0.0            0.0            0.0                           
            14      G      0.0           -6.542983E-03   0.0            0.0            0.0            0.0                           
            15      G     -2.929688E-03   4.285716E+04   0.0            0.0            0.0            0.0                           
            16      G     -7.812500E-04  -8.571430E+04   0.0            0.0            0.0            0.0                           
            18      G      1.562500E-03   8.571430E+04   0.0            0.0            0.0            0.0                           
            19      G     -9.765625E-04  -4.285715E+04   0.0            0.0            0.0            0.0                           
            20      G      0.0           -6.542983E-03   0.0            0.0            0.0            0.0                           
            21      G     -2.929688E-03   4.285716E+04   0.0            0.0            0.0            0.0                           
            22      G     -7.812500E-04  -8.571430E+04   0.0            0.0            0.0            0.0                           
            24      G      1.562500E-03   8.571430E+04   0.0            0.0            0.0            0.0                           
            25      G     -9.765625E-04  -4.285715E+04   0.0            0.0            0.0            0.0                           
            26      G      0.0           -6.542983E-03   0.0            0.0            0.0            0.0                           
            27      G     -2.929688E-03   4.285716E+04   0.0            0.0            0.0            0.0                           
            28      G     -7.812500E-04  -8.571430E+04   0.0            0.0            0.0            0.0                           
            30      G      1.562500E-03   8.571430E+04   0.0            0.0            0.0            0.0                           
            31      G      1.054762E+04  -2.142858E+04   0.0            0.0            0.0            0.0                           
            32      G      4.219048E+04  -2.880867E-03   0.0            0.0            0.0            0.0                           
            33      G      1.054762E+04   2.142858E+04   0.0            0.0            0.0            0.0                           
1     BUCKLING ANALYSIS USING CIS2D8 ELEMENTS                               /    95 SUN SOLARIS NASTRAN    / MAY 18, 95 / PAGE    11
      NASTRAN TEST PROBLEM NO. T05-03-1A                                                                                            
0     STATIC SOLUTION                                                                                        SUBCASE 1              
 
                            G R I D   P O I N T   S T R E S S E S   F O R   I S 2 D 8   E L E M E N T S

  ELEMENT   NO.OF    NO.OF       GRID   COORD.
    ID.    GRID PTS. STRESSES   POINT  SYS ID.     SIG-X        SIG-Y        TAU-XY
        1    8          3          1        0  -7.4379E+04  -4.7231E+05  -1.4839E+05                                                
                                   7        0  -7.4382E+04  -6.6640E+04   7.8283E+04                                                
                                   9        0  -7.4395E+04  -6.6639E+04  -7.8282E+04                                                
                                   3        0  -7.4397E+04  -4.7232E+05   1.4839E+05                                                
                                   4        0   1.9378E+04   4.3052E+04  -3.5054E+04                                                
                                   8        0  -7.1565E+04  -6.5793E+04   4.2936E-01                                                
                                   6        0   1.9363E+04   4.3050E+04   3.5055E+04                                                
                                   2        0  -7.1565E+04  -4.7147E+05   4.0919E-01                                                
        2    8          3          7        0  -1.4540E+04  -4.8686E+04  -7.9277E+03                                                
                                  13        0  -1.4542E+04  -6.0655E+03   6.4699E+03                                                
                                  15        0  -1.4550E+04  -6.0660E+03  -6.4695E+03                                                
                                   9        0  -1.4551E+04  -4.8685E+04   7.9278E+03                                                
                                  10        0  -4.4818E+03   6.1540E+03  -7.2941E+02                                                
                                  14        0  -1.7786E+04  -7.0383E+03   5.9389E-01                                                
                                  12        0  -4.4916E+03   6.1546E+03   7.2981E+02                                                
                                   8        0  -1.7787E+04  -4.9658E+04   5.7371E-01                                                
        3    8          3         13        0  -1.0988E+04  -4.9995E+03  -2.6590E+03                                                
                                  19        0  -1.0989E+04  -8.2336E+02   1.0665E+03                                                
                                  21        0  -1.0993E+04  -8.2361E+02  -1.0657E+03                                                
                                  15        0  -1.0994E+04  -4.9994E+03   2.6585E+03                                                
                                  16        0  -1.0054E+04   2.0185E+02  -7.9604E+02                                                
                                  20        0  -1.0439E+04  -6.5801E+02   2.7277E-01                                                
                                  18        0  -1.0060E+04   2.0169E+02   7.9704E+02                                                
                                  14        0  -1.0439E+04  -4.8339E+03   3.3328E-01                                                
        4    8          3         19        0  -9.9686E+03  -5.1721E+02   1.9032E+02                                                
                                  25        0  -9.9689E+03  -3.3626E+01   3.4794E+00                                                
                                  27        0  -9.9722E+03  -3.3113E+01  -2.5594E+00                                                
                                  21        0  -9.9735E+03  -5.1742E+02  -1.8931E+02                                                
                                  22        0  -9.8464E+03   1.2999E+02   9.6759E+01                                                
                                  26        0  -1.0138E+04  -8.3805E+01   2.1687E-01                                                
                                  24        0  -9.8484E+03   1.3007E+02  -9.7051E+01                                                
                                  20        0  -1.0136E+04  -5.6728E+02   2.9756E-01                                                
        5    8          3         25        0  -1.0034E+04  -5.3253E+01  -1.0027E+02                                                
                                  31        0  -1.0033E+04  -1.9159E+00   4.5140E+01                                                
                                  33        0  -1.0034E+04  -2.3931E+00  -4.5388E+01                                                
                                  27        0  -1.0036E+04  -5.3313E+01   9.8891E+01                                                
                                  28        0  -1.0032E+04  -2.0271E+01  -2.5788E+01                                                
                                  32        0  -9.9853E+03   1.2219E+01   2.5413E-01                                                
                                  30        0  -1.0033E+04  -2.0271E+01   2.7788E+01                                                
                                  26        0  -9.9860E+03  -3.7969E+01   9.2760E-02                                                
                        1 ROOTS BELOW   7.500000E+00
                        1 ROOTS BELOW   6.144206E+00
1     BUCKLING ANALYSIS USING CIS2D8 ELEMENTS                               /    95 SUN SOLARIS NASTRAN    / MAY 18, 95 / PAGE    12
      NASTRAN TEST PROBLEM NO. T05-03-1A                                                                                            
0                                                                                                                                   
 
 
                              E I G E N V A L U E   A N A L Y S I S   S U M M A R Y     (INVERSE POWER METHOD)
0
0                                       NUMBER OF EIGENVALUES EXTRACTED  . . . . . .         1
0                                       NUMBER OF STARTING POINTS USED . . . . . . .         1
0                                       NUMBER OF STARTING POINT MOVES . . . . . . .         0
0                                       NUMBER OF TRIANGULAR DECOMPOSITIONS  . . . .         2
0                                       TOTAL NUMBER OF VECTOR ITERATIONS  . . . . .         6

0                                       REASON FOR TERMINATION . . . . . . . . . . .         6*

0                                       LARGEST OFF-DIAGONAL MODAL MASS TERM . . . .  0.00E+00
0                                                                              . . .         0
                                                  MODE PAIR . . . . . . . . . .
                                                                               . . .         0
0                                       NUMBER OF OFF-DIAGONAL MODAL MASS
                                             TERMS FAILING CRITERION . . . . . . . .         0

0                                       (* NO. OF ROOTS DESIRED WERE FOUND.
                                         SEE NASTRAN U.M. VOL II, SECTION 2.3.3)
1     BUCKLING ANALYSIS USING CIS2D8 ELEMENTS                               /    95 SUN SOLARIS NASTRAN    / MAY 18, 95 / PAGE    13
      NASTRAN TEST PROBLEM NO. T05-03-1A                                                                                            
0                                                                                                                                   
 
                                              R E A L   E I G E N V A L U E S

   MODE    EXTRACTION       EIGENVALUE            RADIAN              CYCLIC           GENERALIZED         GENERALIZED
    NO.       ORDER                              FREQUENCY           FREQUENCY            MASS              STIFFNESS


                                     ****************************************************************
                                     *                                                              *
                                     *
+                                       NASTRAN INFORMATION MESSAGE 3308, LOWEST EIGENVALUE FOUND   *
                                     *  AS INDICATED BY THE STURM'S SEQUENCE OF THE DYNAMIC MATRIX  *
                                     *                                                              *
                                     *        (THIS MESSAGE CAN BE SUPPRESSED BY DIAG 37)           *
                                     ****************************************************************

        1         1        6.144206E+00        2.478751E+00        3.945054E-01        0.0                 0.0                      
1     BUCKLING ANALYSIS USING CIS2D8 ELEMENTS                               /    95 SUN SOLARIS NASTRAN    / MAY 18, 95 / PAGE    14
      NASTRAN TEST PROBLEM NO. T05-03-1A                                                                                            
0     BUCKLING SOLUTION                                                                                      SUBCASE 2              
      EIGENVALUE =  0.614421E+01    (CYCLIC FREQUENCY =  3.945054E-01 HZ)

                                         R E A L   E I G E N V E C T O R   N O .          1
 
      POINT ID.   TYPE          T1             T2             T3             R1             R2             R3
             1      G      0.0            0.0            0.0            0.0            0.0            0.0                           
             2      G      0.0            0.0            0.0            0.0            0.0            0.0                           
             3      G      0.0            0.0            0.0            0.0            0.0            0.0                           
             4      G      1.142272E-02   1.143644E-02   0.0            0.0            0.0            0.0                           
             6      G     -1.142272E-02   1.143643E-02   0.0            0.0            0.0            0.0                           
             7      G      2.401594E-02   4.746133E-02   0.0            0.0            0.0            0.0                           
             8      G      4.186586E-09   4.628003E-02   0.0            0.0            0.0            0.0                           
             9      G     -2.401593E-02   4.746133E-02   0.0            0.0            0.0            0.0                           
            10      G      3.548542E-02   1.072188E-01   0.0            0.0            0.0            0.0                           
            12      G     -3.548540E-02   1.072188E-01   0.0            0.0            0.0            0.0                           
            13      G      4.618458E-02   1.893064E-01   0.0            0.0            0.0            0.0                           
            14      G      1.536467E-08   1.886283E-01   0.0            0.0            0.0            0.0                           
            15      G     -4.618455E-02   1.893063E-01   0.0            0.0            0.0            0.0                           
            16      G      5.533467E-02   2.914981E-01   0.0            0.0            0.0            0.0                           
            18      G     -5.533463E-02   2.914981E-01   0.0            0.0            0.0            0.0                           
            19      G      6.347162E-02   4.110737E-01   0.0            0.0            0.0            0.0                           
            20      G      3.167445E-08   4.105061E-01   0.0            0.0            0.0            0.0                           
            21      G     -6.347156E-02   4.110737E-01   0.0            0.0            0.0            0.0                           
            22      G      6.972521E-02   5.451127E-01   0.0            0.0            0.0            0.0                           
            24      G     -6.972514E-02   5.451127E-01   0.0            0.0            0.0            0.0                           
            25      G      7.462218E-02   6.903621E-01   0.0            0.0            0.0            0.0                           
            26      G      3.522299E-08   6.900859E-01   0.0            0.0            0.0            0.0                           
            27      G     -7.462211E-02   6.903621E-01   0.0            0.0            0.0            0.0                           
            28      G      7.728466E-02   8.432436E-01   0.0            0.0            0.0            0.0                           
            30      G     -7.728458E-02   8.432436E-01   0.0            0.0            0.0            0.0                           
            31      G      7.847647E-02   1.000000E+00   0.0            0.0            0.0            0.0                           
            32      G      5.245840E-08   9.999753E-01   0.0            0.0            0.0            0.0                           
            33      G     -7.847636E-02   1.000000E+00   0.0            0.0            0.0            0.0                           
1     BUCKLING ANALYSIS USING CIS2D8 ELEMENTS                               /    95 SUN SOLARIS NASTRAN    / MAY 18, 95 / PAGE    15
      NASTRAN TEST PROBLEM NO. T05-03-1A                                                                                            
0     BUCKLING SOLUTION                                                                                      SUBCASE 2              
      EIGENVALUE =  0.614421E+01    (CYCLIC FREQUENCY =  3.945054E-01 HZ)

                            G R I D   P O I N T   S T R E S S E S   F O R   I S 2 D 8   E L E M E N T S

  ELEMENT   NO.OF    NO.OF       GRID   COORD.
    ID.    GRID PTS. STRESSES   POINT  SYS ID.     SIG-X        SIG-Y        TAU-XY
        1    8          3          1        0   3.5728E+05   1.0718E+05  -9.8976E+03                                                
                                   7        0   3.8772E+05  -2.5439E+04   3.3143E+03                                                
                                   9        0  -3.8772E+05   2.5441E+04   3.3146E+03                                                
                                   3        0  -3.5728E+05  -1.0718E+05  -9.8978E+03                                                
                                   4        0   3.7250E+05   4.0871E+04   1.0214E+04                                                
                                   8        0   8.3643E-02  -4.8486E-02  -3.5008E+03                                                
                                   6        0  -3.7250E+05  -4.0872E+04   1.0214E+04                                                
                                   2        0   2.3128E-02   1.2029E-02  -1.6713E+04                                                
        2    8          3          7        0   3.4408E+05  -3.8535E+04   6.4677E+03                                                
                                  13        0   3.1320E+05   1.2593E+04   1.0194E+04                                                
                                  15        0  -3.1320E+05  -1.2593E+04   1.0193E+04                                                
                                   9        0  -3.4408E+05   3.8530E+04   6.4680E+03                                                
                                  10        0   3.2864E+05  -1.2970E+04  -5.5734E+02                                                
                                  14        0   7.1300E-03  -5.2830E-01   1.3097E+04                                                
                                  12        0  -3.2864E+05   1.2971E+04  -5.5730E+02                                                
                                   8        0  -1.1390E-01   2.7856E-01   9.3715E+03                                                
        3    8          3         13        0   2.9153E+05   6.0868E+03   1.3046E+04                                                
                                  19        0   2.2910E+05   6.0880E+02   1.5280E+04                                                
                                  21        0  -2.2909E+05  -6.1117E+02   1.5281E+04                                                
                                  15        0  -2.9152E+05  -6.0919E+03   1.3045E+04                                                
                                  16        0   2.6031E+05   3.3579E+03   2.4737E+03                                                
                                  20        0   5.2252E-01  -7.5979E-02   1.5920E+04                                                
                                  18        0  -2.6031E+05  -3.3578E+03   2.4739E+03                                                
                                  14        0  -4.4572E-01  -7.5979E-02   1.3683E+04                                                
        4    8          3         19        0   2.0607E+05  -6.2916E+03   1.7198E+04                                                
                                  25        0   1.2815E+05   5.3079E+03   1.8582E+04                                                
                                  27        0  -1.2815E+05  -5.3076E+03   1.8581E+04                                                
                                  21        0  -2.0606E+05   6.2869E+03   1.7199E+04                                                
                                  22        0   1.6711E+05  -4.8972E+02   2.2367E+03                                                
                                  26        0   7.1814E-02  -8.0213E-01   2.0259E+04                                                
                                  24        0  -1.6711E+05   4.9660E+02   2.2365E+03                                                
                                  20        0   7.1731E-01   4.8886E-01   1.8881E+04                                                
        5    8          3         25        0   1.0110E+05  -2.8256E+03   1.9612E+04                                                
                                  31        0   1.4077E+04   1.2631E+03   2.0086E+04                                                
                                  33        0  -1.4069E+04  -1.2572E+03   2.0088E+04                                                
                                  27        0  -1.0108E+05   2.7974E+03   1.9612E+04                                                
                                  28        0   5.7582E+04  -7.7448E+02   2.8809E+03                                                
                                  32        0  -2.2609E-01  -1.6530E+00   2.1540E+04                                                
                                  30        0  -5.7581E+04   7.7471E+02   2.8806E+03                                                
                                  26        0   1.0649E+00  -3.6202E-01   2.1063E+04                                                




                                        * * * END OF JOB * * *
1
 JOB TITLE =  BUCKLING ANALYSIS USING CIS2D8 ELEMENTS                            
 DATE:  5/18/95
 END TIME: 10:26:54
 TOTAL WALL CLOCK TIME      3 SEC.
 
