





                                  ****
                                *      *
                               *        *
                               *  N A S T R A N
                               *        *
                                *      *
                                  ****


                             SUN COMPUTER SYSTEMS    
                                SOLARIS VERSION

                          SYSTEM RELEASE -  1995 ED.

                                DISTRIBUTED BY

         COMPUTER SOFTWARE MANAGEMENT AND INFORMATION CENTER (COSMIC)
                 UNIVERSITY OF GEORGIA, ATHENS, GEORGIA 30602
                 PHONE: (706)542-3265      FAX: (706)542-4807
1                                                                           /    95 SUN SOLARIS NASTRAN    / MAY 18, 95 / PAGE     2
                                                                                                                                    
0                                                                                                                                   
                                                                                                         
                                                                                                         
                         INSTALLATION CENTER USER INFORMATION GIVEN IN THIS SECTION                      
                                                                                                         
                                     *********************************************                       
                                     *                                           *                       
                                     *  PLEASE READ THE COMMENT IN DEMO PROBLEM  *                       
                                     *  D01002A ABOUT SYSTEM TIMING CONSTANTS    *                       
                                     *                                           *                       
                                     *********************************************                       
                                                                                                         
                         ===X=    TOP OF PAGE REQUEST IF 'X' IS REPLACED BY '='                          
                                                                                                         
1                                                                           /    95 SUN SOLARIS NASTRAN    / MAY 18, 95 / PAGE     3
                                                                                                                                    
0                                                                                                                                   
0*** USER INFORMATION MESSAGE 225, GINO TIME CONSTANTS ARE BEING COMPUTED
     (SEE NASINFO FILE FOR ELIMINATION OF THESE COMPUTATIONS)
1                                                                           /    95 SUN SOLARIS NASTRAN    / MAY 18, 95 / PAGE     4
                                                                                                                                    
0        N A S T R A N    E X E C U T I V E    C O N T R O L    D E C K    E C H O                                                  
0                                                                                                                                   
                                                                                                                                    
                                                                                                                                    
     ID    T08022A,NASTRAN                                                           
     APP   DISP                                                                      
     SOL   8                                                                         
     DIAG  14                                                                        
     TIME  20                                                                        
     $                                                                               
0*** $   ... READFILE FROM-  COSDFVA                                                 
     $ COSMIC ALTERS FOR DIRECT FORCED VIBRATION ANALYSIS (COSDFVA)                  
     $ ALTER    3 $                                                                  
     INSERT FILE $                                                                   
     FILE     UXVF=APPEND/PDT=APPEND/PD=APPEND $                                     
     $ PERFORM INITIAL ERROR CHECKS ON NSEGS AND KMAX.                               
     COND     ERRORC1,NSEGS $  IF USER HAS NOT SPECIFIED NSEGS.                      
     COND     ERRORC1,KMAX  $  IF USER HAS NOT SPECIFIED KMAX.                       
     PARAM    //*EQ*/CYCIOERR /V,Y,CYCIO=0 /0 $                                      
     COND     ERRORC1,CYCIOERR  $  IF USER HAS NOT SPECIFIED CYCIO.                  
     PARAM    //*DIV*/NSEG2 /V,Y,NSEGS /2 $  NSEG2 = NSEGS/2                         
     PARAM    //*SUB*/KMAXERR /NSEG2 /V,Y,KMAX $                                     
     COND     ERRORC1,KMAXERR $  IF KMAX .GT. NSEGS/2                                
     $ SET DEFAULTS FOR PARAMETERS.                                                  
     PARAM    //*NOP*/V,Y,NOKPRT=+1 /V,Y,LGKAD=-1 $                                  
     $ CALCULATE OMEGA, 2*OMEGA AND OMEGA**2 FROM RPS. SET DEFAULT RPS.              
     PARAMR   //*MPY*/OMEGA /V,Y,RPS=0.0 /6.283185 $                                 
     PARAMR   //*MPY*/OMEGA2 /2.0 /OMEGA $                                           
     PARAMR   //*MPY*/OMEGASQR /OMEGA /OMEGA $                                       
     $ GENERATE NORPS FLAG IF RPS IS ZERO.                                           
     PARAMR   //*EQ*//V,Y,RPS /0.0 ////NORPS $                                       
     $ MAKE SURE COUPLED MASSES HAVE NOT BEEN REQUESTED.                             
     PARAM    //*NOT*/NOLUMP /V,Y,COUPMASS=-1 $                                      
     COND     ERRORC2,NOLUMP $                                                       
     $ ALTER    21,21 $  ADD SLT TO OUTPUT FOR TRLG.                                 
     DELETE GP3 $                                                                    
     GP3      GEOM3,EQEXIN,GEOM2 / SLT,GPTT / NOGRAV $                               
     $ ALTER    24 $                                                                 
     INSERT TA1,2 $                                                                  
     $ SINCE MULTIPLE CONSTRAINTS ARE NOT ALLOWED EXECUTE GP4 NOW SO THAT            
     $ MORE ERROR CHECKS CAN BE MADE BEFORE ELEMENT GENERATION.                      
     $ ADD YS NEEDED FOR PSF RECOVERY IN SSG2.                                       
     PARAM    //*MPY*/NSKIP /0/0 $                                                   
     GP4      CASECC,GEOM4,EQEXIN,GPDT,BGPDT,CSTM,/RG,YS,USET,ASET,/LUSET/           
              S,N,MPCF1/S,N,MPCF2/S,N,SINGLE/S,N,OMIT/S,N,REACT/S,N,NSKIP/           
              S,N,REPEAT/S,N,NOSET/S,N,NOL/S,N,NOA/C,Y,ASETOUT/C,Y,AUTOSPC $         
     PURGE    GM,GMD/MPCF1/GO,GOD/OMIT/KFS,PSF,QPC/SINGLE $                          
     $ SUPORT BULK DATA IS NOT ALLOWED.                                              
     PARAM    //*NOT*/REACDATA /REACT $                                              
     COND     ERRORC3,REACDATA $                                                     
1                                                                           /    95 SUN SOLARIS NASTRAN    / MAY 18, 95 / PAGE     5
                                                                                                                                    
0        N A S T R A N    E X E C U T I V E    C O N T R O L    D E C K    E C H O                                                  
0                                                                                                                                   
                                                                                                                                    
                                                                                                                                    
     $ EXECUTE DPD NOW SO CHECKS CAN BE MADE. ADD TRL TO OUTPUT DATA BLOCKS.         
     DPD      DYNAMICS,GPL,SIL,USET / GPLD,SILD,USETD,TFPOOL,DLT,PSDL,FRL,,          
              TRL,,EQDYN / LUSET/S,N,LUSETD/NOTFL/S,N,NODLT/S,N,NOPSDL/              
              S,N,NOFRL/NONLFT/S,N,NOTRL/NOEED//S,N,NOUE $                           
     $ MUST HAVE EITHER FREQ OR TSTEP BULK DATA.                                     
     PARAM    //*AND*/FTERR /NOFRL /NOTRL $                                          
     COND     ERRORC5,FTERR $  NO FREQ OR TSTEP BULK DATA.                           
     $ ONLY FREQUENCY OR TSTEP IS ALLOWED IN THE CASE CONTROL                        
     PARAML   CASECC //*TABLE1*/1/14//FREQSET $                                      
     PARAML   CASECC //*TABLE1*/1/38//TIMESET $                                      
     PARAM    //*MPY*/FREQTIME /FREQSET /TIMESET $                                   
     PARAM    //*NOT*/FTERR1 /FREQTIME $                                             
     PARAM    //*LE*/NOFREQ /FREQSET /0 $                                            
     PARAM    //*LE*/NOTIME /TIMESET /0 $                                            
     COND     ERRORC6,FTERR1 $  BOTH FREQ AND TSTEP IN CASE CONTROL DECK.            
     $ EPOINT BULK DATA NOT ALLOWED                                                  
     PARAM    //*NOT*/EXTRAPTS /NOUE $                                               
     COND     ERRORC4,EXTRAPTS $                                                     
     $ GENERATE DATA FOR CYCT2 MODULE.                                               
     GPCYC    GEOM4,EQDYN,USETD /CYCDD /CTYPE=ROT /S,N,NOGO $                        
     COND     ERRORC1,NOGO $                                                         
     $ ALTER    34 $                                                                 
     INSERT EMA,1 $                                                                  
     $ PRE-PURGE DATA BLOCKS THAT WILL NOT BE GENERATED                              
     PARAM    //*OR*/NOBM1 /NOMGG /NORPS $                                           
     PURGE    B1GG,M1GG /NOBM1 $                                                     
     PURGE    M2GG,M2BASEXG /NOMGG $                                                 
     $ ALTER    38 $                                                                 
     INSERT EMA(2),1 $                                                               
     $ GENERATE DATA BLOCKS FRLX, B1GG, M1GG, M2GG AND BASEGX.                       
     $ GENERATE PARAMETERS FKMAX AND NOBASEX.                                        
     FVRSTR1  CASECC,BGPDT,CSTM,DIT,FRL,MGG,, / FRLX,B1GG,M1GG,M2GG,BASEXG,          
              PDZERO,, /NOMGG/V,Y,CYCIO/V,Y,NSEGS/V,Y,KMAX/S,N,FKMAX/                
              V,Y,BXTID=-1/V,Y,BXPTID=-1/V,Y,BYTID=-1/V,Y,BYPTID=-1/                 
              V,Y,BZTID=-1/V,Y,BZPTID=-1/S,N,NOBASEX/NOFREQ/OMEGA  $                 
     PARAML   FRLX //*PRES*////NOFRLX $                                              
     COND     LBLFRLX,NOFRLX $                                                       
     EQUIV    FRLX,FRL $                                                             
     LABEL    LBLFRLX $                                                              
     $ ALTER    47 $                                                                 
     INSERT EMA(4),2 $                                                               
     PARAM    //*ADD*/NOBGG /NOBM1 /0 $  RESET NOBGG.                                
     $ ALTER    58 $                                                                 
     INSERT GPSTGEN $                                                                
     $ REDEFINE BGG AND KGG.                                                         
     COND     LBL11A,NOBM1 $                                                         
     PARAMR   //*COMPLEX*// OMEGA2 /0.0/ CMPLX1 $                                    
1                                                                           /    95 SUN SOLARIS NASTRAN    / MAY 18, 95 / PAGE     6
                                                                                                                                    
0        N A S T R A N    E X E C U T I V E    C O N T R O L    D E C K    E C H O                                                  
0                                                                                                                                   
                                                                                                                                    
                                                                                                                                    
     PARAMR   //*SUB*/ MOMEGASQ / 0.0 / OMEGASQR $                                   
     PARAMR   //*COMPLEX*// MOMEGASQ / 0.0 / CMPLX2 $                                
     ADD      BGG,B1GG / BGG1 / (1.0,0.0) / CMPLX1 $                                 
     EQUIV    BGG1,BGG $                                                             
     ADD      KGG,M1GG / KGG1 / (1.0,0.0) / CMPLX2 $                                 
     EQUIV    KGG1,KGG $                                                             
     LABEL    LBL11A                                                                 
     $ ALTER    59,62 $  GP4 HAS BEEN MOVED-UP.                                      
     DELETE GP4,-1,GP4,2 $                                                           
     $ ALTER    87,87 $  DPD HAS BEEN MOVED-UP.                                      
     DELETE DPD $                                                                    
     $ ALTER    112 $  PARAM AND EQUIV LOGIC DEPENDING ON LGKAD FOR FREQ/TRAN.       
     INSERT GKAD,-3 $                                                                
     PARAM    //*AND*/KDEKA/NOUE/NOK2PP $                                            
     COND     LGKAD1,LGKAD $  BRANCH IN NOT FREQRESP.                                
     $ ALTER    113 $  SEE ALTER 112 COMMENT.                                        
     INSERT GKAD,-2 $                                                                
     JUMP     LGKAD2 $                                                               
     LABEL    LGKAD1 $                                                               
     EQUIV    M2PP,M2DD/NOA/B2PP,B2DD/NOA/K2PP,K2DD/NOA/MAA,MDD/MDEMA/               
              KAA,KDD/KDEKA $                                                        
     LABEL    LGKAD2 $                                                               
     $ ALTER    115,115 $  ADD PARAMETERS GKAD, W3 AND W4 TO GKAD.                   
     DELETE GKAD $                                                                   
     GKAD     USETD,GM,GO,KAA,BAA,MAA,K4AA,K2PP,M2PP,B2PP/KDD,BDD,MDD,GMD,           
              GOD,K2DD,M2DD,B2DD/C,Y,GKAD=TRANRESP/*DISP*/*DIRECT*/                  
              C,Y,G=0.0/C,Y,W3=0.0/C,Y,W4=0.0/NOK2PP/NOM2PP/NOB2PP/MPCF1/            
              SINGLE/OMIT/NOUE/NOK4GG/NOBGG/KDEK2/-1 $                               
     $ ALTER    116 $  SEE ALTER 112 COMMENT.                                        
     INSERT GKAD,1 $                                                                 
     COND     LGKAD3,LGKAD $  BRANCH IF NOT FREQRESP.                                
     $ ALTER    117 $  SEE ALTER 112 COMMENT.                                        
     INSERT GKAD,2 $                                                                 
     JUMP     LGKAD4 $                                                               
     LABEL    LGKAD3 $                                                               
     EQUIV    B2DD,BDD/NOGPDT/M2DD,MDD/NOSIMP/K2DD,KDD/KDEK2 $                       
     LABEL    LGKAD4 $                                                               
     $ ALTER    118,122 $                                                            
     DELETE FRRD,-2,VDR $                                                            
     $ NEW SOLUTION LOGIC                                                            
     $ GENERATE TIME-DEPENDENT LOADS IF TSTEP WAS REQUESTED IN CASE CONTROL.         
     $ USE FOL INSTEAD OF PPF TO GET OUTPUT FREQUENCY LIST.                          
     COND     LBLTRL1,NOTIME $                                                       
     $ LOOP THRU ALL SUBCASES FOR TIME-DEPENDENT LOADS.                              
     PARAM    //*MPY*/REPEATT /1 /-1 $                                               
     PARAM    //*ADD*/APPFLG /1 /0 $  INITIALIZE FOR SDR1.                           
     LABEL    TRLGLOOP $                                                             
1                                                                           /    95 SUN SOLARIS NASTRAN    / MAY 18, 95 / PAGE     7
                                                                                                                                    
0        N A S T R A N    E X E C U T I V E    C O N T R O L    D E C K    E C H O                                                  
0                                                                                                                                   
                                                                                                                                    
                                                                                                                                    
     CASE     CASECC,/CASEYY/*TRAN*/S,N,REPEATT/S,N,NOLOOP1 $                        
     PARAM    //*MPY*/NCOL /0 /1 $                                                   
     TRLG     CASEYY,USETD,DLT,SLT,BGPDT,SIL,CSTM,TRL,DIT,GMD,GOD,,EST,MGG,/         
              ,,PDT1,PD1,,TOL/ NOSET/NCOL $                                          
     SDR1     TRL,PDT1,,,,,,,,, / ,PDT, /APPFLG/*DYNAMICS* $                         
     SDR1     TRL,PD1 ,,,,,,,,, / ,PD , /APPFLG/*DYNAMICS* $                         
     PARAM    //*ADD*/APPFLG /APPFLG /1 $  APPFLG=APPFLG+1.                          
     COND     TRLGDONE,REPEATT $                                                     
     REPT     TRLGLOOP,100 $                                                         
     JUMP     ERROR3 $                                                               
     LABEL    TRLGDONE $                                                             
     FVRSTR2  TOL,,,,,,, / FRLZ,FOLZ,REORDER1,REORDER2,,,, /V,Y,NSEGS/               
              V,Y,CYCIO/S,Y,LMAX=-1/FKMAX/S,N,FLMAX/S,N,NTSTEPS/S,N,NORO1/           
              S,N,NORO2 $                                                            
     EQUIV    FRLZ,FRL // FOLZ,FOL $                                                 
     JUMP     LBLFRL2 $                                                              
     LABEL    LBLTRL1 $                                                              
     $ GENERATE FREQUENCY-DEPENDENT LOADS IF FREQUENCY WAS SELECTED IN CC.           
     FRLG     CASEXX,USETD,DLT,FRL,GMD,GOD,DIT, / PPF,PSF,PDF,FOL,PHFDUM /           
              *DIRECT*/FREQY/*FREQ* $                                                
     COND     LBLFRLX1,NOFRLX $  ZERO OUT LOAD COLUMNS IF FRLX WAS GENERATED.        
     MPYAD    PPF,PDZERO, / PPFX /0 $                                                
     EQUIV    PPFX,PPF $                                                             
     LABEL    LBLFRLX1 $                                                             
     $ FORM NEW LOADS.                                                               
     COND     LBLFRL1,NOBASEX $                                                      
     MPYAD    M2GG,BASEXG, / M2BASEXG /0 $                                           
     ADD      PPF,M2BASEXG / PPF1 /(1.0,0.0) /(-1.0,0.0) $                           
     EQUIV    PPF1,PPF $                                                             
     COND     LBLBASE1,NOSET $                                                       
     SSG2     USETD,GMD,YS,KFS,GOD,,PPF / ,PODUM1,PSF1,PDF1 $                        
     EQUIV    PSF1,PSF // PDF1,PDF $                                                 
     LABEL    LBLBASE1 $                                                             
     LABEL    LBLFRL1 $                                                              
     EQUIV    PPF,PDF/NOSET $                                                        
     $ LOADS ARE FREQUENCY-DEPENDENT                                                 
     $ PERFORM CYCLIC TRANSFORMATION ON LOADS IF CYCIO=+1.                           
     PARAML   PDF //*TRAILER*/1 /PDFCOLS $                                           
     $ CALCULATE THE NUMBER OF LOADS FOR CYCIO=-1.                                   
     PARAM    //*DIV*/NLOAD /PDFCOLS /FKMAX $ NLOAD = NF/FKMAX                       
     EQUIV    PDF,PXF/CYCIO $                                                        
     COND     LBLPDONE,CYCIO $                                                       
     $ CALCULATE THE NUMBER OF LOADS FOR CYCIO=1.                                    
     PARAM    //*DIV*/NLOAD /PDFCOLS /V,Y,NSEGS $ NLOAD = NF/NSEGS                   
     CYCT1    PDF / PXF,GCYCF1 /CTYPE /*FORE*/V,Y,NSEGS=-1 /V,Y,KMAX=-1/             
              NLOAD /S,N,NOGO $                                                      
     COND     ERRORC1,NOGO $                                                         
1                                                                           /    95 SUN SOLARIS NASTRAN    / MAY 18, 95 / PAGE     8
                                                                                                                                    
0        N A S T R A N    E X E C U T I V E    C O N T R O L    D E C K    E C H O                                                  
0                                                                                                                                   
                                                                                                                                    
                                                                                                                                    
     JUMP     LBLPDONE $                                                             
     LABEL    LBLFRL2 $                                                              
     $ LOADS ARE TIME-DEPENDENT                                                      
     PARAM    //*NOT*/NOTCYCIO /V,Y,CYCIO $                                          
     $ BRANCH DEPENDING ON VALUE OF CYCIO                                            
     COND     LBLTRL2,NOTCYCIO $                                                     
     $ CYCIO=-1                                                                      
     EQUIV    PD,PDTRZ1/NORO1 $                                                      
     COND     LBLRO1A,NORO1 $                                                        
     MPYAD    PD,REORDER1, / PDTRZ1 / 0 $                                            
     LABEL    LBLRO1A $                                                              
     CYCT1    PDTRZ1 / PXTRZ1,GCYCF2 /CTYPE/*FORE*/NTSTEPS/V,Y,LMAX/FKMAX/           
              S,N,NOGO $                                                             
     COND     ERRORC1,NOGO $                                                         
     EQUIV    PXTRZ1,PXFZ1/NORO2 $                                                   
     COND     LBLRO2A,NORO2 $                                                        
     MPYAD    PXTRZ1,REORDER2, / PXFZ1 /0 $                                          
     LABEL    LBLRO2A $                                                              
     EQUIV    PXFZ1,PXF1 $                                                           
     JUMP     LBLTRL3 $                                                              
     LABEL    LBLTRL2 $                                                              
     $ CYCIO = +1                                                                    
     MPYAD    PD,REORDER1, / PDTRZ2 / 0 $                                            
     CYCT1    PDTRZ2 /PXTRZ2,GCYCF3 /CTYPE/*FORE*/NTSTEPS/V,Y,LMAX/                  
              V,Y,NSEGS/S,N,NOGO $                                                   
     COND     ERRORC1,NOGO $                                                         
     EQUIV    PXTRZ2,PXTR2/NORO2 $                                                   
     COND     LBLRO2B,NORO2 $                                                        
     MPYAD    PXTRZ2,REORDER2, / PXTR2 /0 $                                          
     LABEL    LBLRO2B $                                                              
     CYCT1    PXTR2 / PXFZ2,GCYCF4 / CTYPE/*FORE*/V,Y,NSEGS/V,Y,KMAX/                
              FLMAX/S,N,NOGO $                                                       
     COND     ERRORC1,NOGO $                                                         
     EQUIV    PXFZ2,PXF1 $                                                           
     LABEL    LBLTRL3 $                                                              
     $ TIME-DEPENDENT LOADS ARE REAL. MAKE LOADS COMPLEX TO CORRESPOND               
     $ TO FREQUENCY DEPENDENT LOADS. ALSO SDR2 EXPECTS LOADS TO BE COMPLEX           
     $ IN FREQRESP TYPE PROBLEMS.                                                    
     COPY     PXF1 / PXF2  $  CONVERT REAL PXF1 TO COMPLEX PXF.                      
     ADD      PXF1,PXF2 / PXF / (0.5,1.0) / (0.5,-1.0) $                             
     $ DEFINE NLOAD FOR CYCT2.                                                       
     PARAM    //*ADD*/NLOAD /FLMAX /0 $  NLOAD = FLMAX                               
     LABEL    LBLPDONE $                                                             
     PARAM    //*ADD*/KINDEX /V,Y,KMIN=0 /0 $  INTITIALIZE KINDEX.                   
     $                                                                               
     $ INITIALIZE UXVF IF KMIN IS NOT ZERO.                                          
     $                                                                               
1                                                                           /    95 SUN SOLARIS NASTRAN    / MAY 18, 95 / PAGE     9
                                                                                                                                    
0        N A S T R A N    E X E C U T I V E    C O N T R O L    D E C K    E C H O                                                  
0                                                                                                                                   
                                                                                                                                    
                                                                                                                                    
     PARAM    //*ADD*/KMINL /V,Y,KMIN /-1 $                                          
     COND     NOKMINL,KMINL $                                                        
     PARAM    //*ADD*/KMINV /0 /0 $                                                  
     LABEL    KMINLOOP $                                                             
     CYCT2    CYCDD,,,PXF,, /,,PKFZ,, /*FORE*/V,Y,NSEGS/KMINV/CYCSEQ/NLOAD/          
              S,N,NOGO $                                                             
     COND     ERRORC1,NOGO $                                                         
     ADD      PKFZ, / UKVFZ / (0.0,0.0) $                                            
     PRTPARM  //0/*KINDEX* $                                                         
     CYCT2    CYCDD,,,UKVFZ,, /,,UXVF,, /*BACK*/V,Y,NSEGS/                           
              KMINV/CYCSEQ/NLOAD/S,N,NOGO $                                          
     PRTPARM  //0/*KINDEX* $                                                         
     COND     ERRORC1,NOGO $                                                         
     PARAM    //*ADD*/KMINV /KMINV /1 $                                              
     REPT     KMINLOOP,KMINL $                                                       
     LABEL    NOKMINL $                                                              
     LABEL    TOPCYC $  LOOP ON KINDEX                                               
     COND     NOKPRT,NOKPRT $                                                        
     PRTPARM  //0 /*KINDEX* $                                                        
     LABEL    NOKPRT $                                                               
     CYCT2    CYCDD,KDD,MDD,,, /KKKF,MKKF,,, /*FORE*/V,Y,NSEGS/KINDEX/               
              CYCSEQ=-1/NLOAD/S,N,NOGO $                                             
     COND     ERRORC1,NOGO $                                                         
     CYCT2    CYCDD,BDD,,PXF,, /BKKF,,PKF,, /*FORE*/V,Y,NSEGS/KINDEX/                
              CYCSEQ/NLOAD/S,N,NOGO $                                                
     COND     ERRORC1,NOGO $                                                         
     $ SOLUTION                                                                      
     FRRD2    KKKF,BKKF,MKKF,,PKF,FOL / UKVF /0.0/0.0/-1.0 $                         
     CYCT2    CYCDD,,,UKVF,, /,,UXVF,, /*BACK*/V,Y,NSEGS/KINDEX/CYCSEQ/              
              NLOAD/S,N,NOGO $                                                       
     COND     ERRORC1,NOGO $                                                         
     PARAM    //*ADD*/KINDEX/KINDEX/1 $  KINDEX = KINDEX + 1                         
     PARAM    //*SUB*/DONE / V,Y,KMAX / KINDEX $                                     
     COND     LCYC2,DONE $  IF KINDEX .GT. KMAX THEN EXIT                            
     REPT     TOPCYC,100 $                                                           
     JUMP     ERROR3 $                                                               
     LABEL    LCYC2 $                                                                
     EQUIV    UXVF,UDVF / CYCIO $                                                    
     COND     LCYC3,CYCIO $  IF CYCIO .GE. 0 THEN TRANSFORM TO PHYSICAL.             
     CYCT1    UXVF / UDVF,GCYCB1 / CTYPE/*BACK*/V,Y,NSEGS/V,Y,KMAX/NLOAD $           
     LABEL    LCYC3 $                                                                
     COND     LBLTRL4,NOTIME $                                                       
     EQUIV    PXF,PDF2 / CYCIO $                                                     
     COND     LCYC4,CYCIO $  IF CYCIO .GE. 0 THEN TRANSFORM TO PHYSICAL.             
     CYCT1    PXF / PDF2,GCYCB2 / CTYPE/*BACK*/V,Y,NSEGS/V,Y,KMAX/NLOAD $            
     LABEL    LCYC4 $                                                                
     $ IF LOADS WERE TIME-DEPENDENT THEN RECOVER PPF AND PSF FROM PXF.               
1                                                                           /    95 SUN SOLARIS NASTRAN    / MAY 18, 95 / PAGE    10
                                                                                                                                    
0        N A S T R A N    E X E C U T I V E    C O N T R O L    D E C K    E C H O                                                  
0                                                                                                                                   
                                                                                                                                    
                                                                                                                                    
     SDR1     USETD,,PDF2,,,GOD,GMD,,,, / PPFZ,, /1 /*DYNAMICS* $                    
     SSG2     USETD,GMD,YS,KFS,GOD,,PPFZ / ,PODUM,PSFZ,PLDUM $                       
     EQUIV    PPFZ,PPF // PSFZ,PSF $                                                 
     LABEL    LBLTRL4 $                                                              
     VDR      CASEXX,EQDYN,USETD,UDVF,FOL,XYCDB,/OUDVC1,/*FREQRESP*/                 
              *DIRECT*/S,N,NOSORT2/S,N,NOD/S,N,NOP/0 $                               
     $ ALTER    138,138 $  USE FOL INSTEAD OF PPF TO GET OUTPUT FREQUENCY LIST.      
     DELETE SDR2 $                                                                   
     SDR2     CASEXX,CSTM,MPT,DIT,EQDYN,SILD,,,BGPDP,FOL,QPC,UPVC,EST,XYCDB,         
              PPF,/OPPC1,OQPC1,OUPVC1,OESC1,OEFC1,PUPVC1,,/*FREQRESP*/               
              S,N,NOSORT2 $                                                          
     $ ALTER    160 $  ADD LABEL FOR ERROR3.                                         
     INSERT PLOT(2),4 $                                                              
     LABEL    ERROR3 $                                                               
     $ ALTER    163,166 $  REMOVE ERROR1 AND ERROR2.                                 
     DELETE PLOT(2),7,PLOT(2),10 $                                                   
     $ ALTER    168 $  FORCED VIBRATION ERRORS                                       
     INSERT END,-3 $                                                                 
     LABEL    ERRORC1 $  CHECK NSEGS, KMAX AND OTHER CYCLIC DATA.                    
     PRTPARM  //-5 /*CYCSTATICS* $                                                   
     LABEL    ERRORC2 $  COUPLED MASS NOT ALLOWED.                                   
     PRTPARM  //0 /C,Y,COUPMASS $                                                    
     JUMP     FINIS $                                                                
     LABEL    ERRORC3 $  SUPORT BULK DATA NOT ALLOWED.                               
     PRTPARM  //-6 /*CYCSTATICS* $                                                   
     LABEL    ERRORC4 $  EPOINT BULK DATA NOT ALLOWED.                               
     PRTPARM  //0 /*NOUE* $                                                          
     JUMP     FINIS $                                                                
     LABEL    ERRORC5 $  NEITHER FREQ OR TSTEP WERE IN BULK DATA DECK.               
     PRTPARM  //0 /*NOFRL* $                                                         
     PRTPARM  //0 /*NOTRL* $                                                         
     JUMP     FINIS $                                                                
     LABEL    ERRORC6 $  BOTH FREQ AND TSTEP WERE SELECTED IN CASE CONTROL.          
     PRTPARM  //0 /*NOFREQ* $                                                        
     PRTPARM  //0 /*NOTIME* $                                                        
     ENDALTER $                                                                      
0*** $   END READFILE                                                                
     $                                                                               
     CEND                                                                            


0*** USER INFORMATION MESSAGE, TURN DIAG 48 ON FOR NASTRAN RELEASE NEWS, DIAG DEFINITION, NEW DMAP
         MODULES AND NEW BULKDATA CARDS INFORMATION
1     ROTATING CYCLIC STRUCTURE (TIME DEP. LOADS, PHYSICAL I/O)             /    95 SUN SOLARIS NASTRAN    / MAY 18, 95 / PAGE    11
      NASTRAN TEST PROBLEM NO. T08-02-2A                                                                                            
0                                                                                                                                   
0                                        C A S E    C O N T R O L   D E C K   E C H O                                               
                 CARD                                                                                                               
                 COUNT                                                                                                              
                  1      TITLE    = ROTATING CYCLIC STRUCTURE (TIME DEP. LOADS, PHYSICAL I/O)            
                  2      SUBTITLE = NASTRAN TEST PROBLEM NO. T08-02-2A                                   
                  3      $                                                                               
                  4         SPC   = 30                                                                   
                  5         TSTEP = 1                                                                    
                  6      OUTPUT                                                                          
                  7         SET 1 = 8,16,18                                                              
                  8         SET 2 = 11                                                                   
                  9         OLOAD = 1                                                                    
                 10         DISP(SORT2,PHASE)   = 1                                                      
                 11         STRESS(SORT2,PHASE) = 2                                                      
                 12            SUBCASE 1                                                                 
                 13               LABEL = SEGMENT 1                                                      
                 14               DLOAD = 1   $ TIME DEPENDENT LOADS                                     
                 15            SUBCASE 2                                                                 
                 16               LABEL = SEGMENT 2                                                      
                 17               DLOAD = 2   $ TIME DEPENDENT LOADS                                     
                 18            SUBCASE 3                                                                 
                 19               LABEL = SEGMENT 3                                                      
                 20               DLOAD = 3   $ TIME DEPENDENT LOADS                                     
                 21            SUBCASE 4                                                                 
                 22               LABEL = SEGMENT 4                                                      
                 23               DLOAD = 4   $ TIME DEPENDENT LOADS                                     
                 24            SUBCASE 5                                                                 
                 25               LABEL = SEGMENT 5                                                      
                 26               DLOAD = 5   $ TIME DEPENDENT LOADS                                     
                 27            SUBCASE 6                                                                 
                 28               LABEL = SEGMENT 6                                                      
                 29               DLOAD = 6   $ TIME DEPENDENT LOADS                                     
                 30            SUBCASE 7                                                                 
                 31               LABEL = SEGMENT 7                                                      
                 32               DLOAD = 7   $ TIME DEPENDENT LOADS                                     
                 33            SUBCASE 8                                                                 
                 34               LABEL = SEGMENT 8                                                      
                 35               DLOAD = 8   $ TIME DEPENDENT LOADS                                     
                 36            SUBCASE 9                                                                 
                 37               LABEL = SEGMENT 9                                                      
                 38               DLOAD = 9   $ TIME DEPENDENT LOADS                                     
                 39            SUBCASE 10                                                                
                 40               LABEL = SEGMENT 10                                                     
                 41               DLOAD = 10  $ TIME DEPENDENT LOADS                                     
                 42            SUBCASE 11                                                                
                 43               LABEL = SEGMENT 11                                                     
                 44               DLOAD = 11  $ TIME DEPENDENT LOADS                                     
                 45            SUBCASE 12                                                                
                 46               LABEL = SEGMENT 12                                                     
                 47               DLOAD = 12  $ TIME DEPENDENT LOADS                                     
1     ROTATING CYCLIC STRUCTURE (TIME DEP. LOADS, PHYSICAL I/O)             /    95 SUN SOLARIS NASTRAN    / MAY 18, 95 / PAGE    12
      NASTRAN TEST PROBLEM NO. T08-02-2A                                                                                            
0                                                                                                                                   
0                                        C A S E    C O N T R O L   D E C K   E C H O                                               
                 CARD                                                                                                               
                 COUNT                                                                                                              
                 48      BEGIN BULK                                                                      


                        (NO. OF UNSORTED BULK DATA CARDS READ =   100, INCLUDING   0 COMMENT CARDS)
0*** USER INFORMATION MESSAGE 207, BULK DATA DECK IS NOT SORTED. NASTRAN WILL RE-ORDER THE INPUT DECK.
0*** USER INFORMATION MESSAGE 207A, SIX CHARACTERS OF NASTRAN BCD NAME IN THE THIRD FIELD WERE USED DURING RE-ORDERING DECK
1     ROTATING CYCLIC STRUCTURE (TIME DEP. LOADS, PHYSICAL I/O)             /    95 SUN SOLARIS NASTRAN    / MAY 18, 95 / PAGE    13
      NASTRAN TEST PROBLEM NO. T08-02-2A                                                                                            
0                                                                                                                                   
0                                                 S O R T E D   B U L K    D A T A    E C H O                                       
                     CARD                                                                                                           
                     COUNT        ---1--- +++2+++ ---3--- +++4+++ ---5--- +++6+++ ---7--- +++8+++ ---9--- +++10+++                  
                    1-        CORD2C  1               0.0     0.0     0.0     1.0     0.0     0.0     +COR12  
                    2-        +COR12  0.0     1.0     0.0                                                     
                    3-        CQUAD2  4       2       2       3       7       6                               
                    4-        CQUAD2  5       2       6       7       12      11                              
                    5-        CQUAD2  6       2       3       4       8       7                               
                    6-        CQUAD2  7       2       7       8       13      12                              
                    7-        CQUAD2  8       2       4       5       9       8                               
                    8-        CQUAD2  10      2       8       15      14      13                              
                    9-        CQUAD2  11      3       9       16      18      15                              
                   10-        CQUAD2  12      3       16      17      19      18                              
                   11-        CTRIA2  1       1       1       6       10                                      
                   12-        CTRIA2  2       1       1       2       6                                       
                   13-        CTRIA2  3       1       10      6       11                                      
                   14-        CTRIA2  9       1       8       9       15                                      
                   15-        CYJOIN  1               1       2       3       4       5                       
                   16-        CYJOIN  2               10      11      12      13      14                      
                   17-        DAREA   1       8       3       -1.0                                            
                   18-        DAREA   1       16      3       1.0                                             
                   19-        DAREA   1       18      3       1.0                                             
                   20-        DAREA   2       8       3       -0.5                                            
                   21-        DAREA   2       16      3       0.5                                             
                   22-        DAREA   2       18      3       0.5                                             
                   23-        DAREA   3       8       3       0.5                                             
                   24-        DAREA   3       16      3       -0.5                                            
                   25-        DAREA   3       18      3       -0.5                                            
                   26-        DAREA   4       8       3       1.0                                             
                   27-        DAREA   4       16      3       -1.0                                            
                   28-        DAREA   4       18      3       -1.0                                            
                   29-        DAREA   5       8       3       0.5                                             
                   30-        DAREA   5       16      3       -0.5                                            
                   31-        DAREA   5       18      3       -0.5                                            
                   32-        DAREA   6       8       3       -0.5                                            
                   33-        DAREA   6       16      3       0.5                                             
                   34-        DAREA   6       18      3       0.5                                             
                   35-        DAREA   7       8       3       -1.0                                            
                   36-        DAREA   7       16      3       1.0                                             
                   37-        DAREA   7       18      3       1.0                                             
                   38-        DAREA   8       8       3       -0.5                                            
                   39-        DAREA   8       16      3       0.5                                             
                   40-        DAREA   8       18      3       0.5                                             
                   41-        DAREA   9       8       3       0.5                                             
                   42-        DAREA   9       16      3       -0.5                                            
                   43-        DAREA   9       18      3       -0.5                                            
                   44-        DAREA   10      8       3       1.0                                             
                   45-        DAREA   10      16      3       -1.0                                            
                   46-        DAREA   10      18      3       -1.0                                            
                   47-        DAREA   11      8       3       0.5                                             
1     ROTATING CYCLIC STRUCTURE (TIME DEP. LOADS, PHYSICAL I/O)             /    95 SUN SOLARIS NASTRAN    / MAY 18, 95 / PAGE    14
      NASTRAN TEST PROBLEM NO. T08-02-2A                                                                                            

                                                                                                                                    

                                                  S O R T E D   B U L K    D A T A    E C H O                                       
                     CARD                                                                                                           
                     COUNT        ---1--- +++2+++ ---3--- +++4+++ ---5--- +++6+++ ---7--- +++8+++ ---9--- +++10+++                  
                   48-        DAREA   11      16      3       -0.5                                            
                   49-        DAREA   11      18      3       -0.5                                            
                   50-        DAREA   12      8       3       -0.5                                            
                   51-        DAREA   12      16      3       0.5                                             
                   52-        DAREA   12      18      3       0.5                                             
                   53-        GRDSET          1                               1                               
                   54-        GRID    1               2.0     30.0    0.0                                     
                   55-        GRID    2               3.1     30.0    0.0                                     
                   56-        GRID    3               4.3     30.0    0.0                                     
                   57-        GRID    4               5.2     30.0    0.0                                     
                   58-        GRID    5               7.1     30.0    0.0                                     
                   59-        GRID    6               3.1     45.0    0.0                                     
                   60-        GRID    7               4.3     45.0    0.0                                     
                   61-        GRID    8               5.2     45.0    0.0                                     
                   62-        GRID    9               7.1     40.0    0.0                                     
                   63-        GRID    10              2.0     60.0    0.0                                     
                   64-        GRID    11              3.1     60.0    0.0                                     
                   65-        GRID    12              4.3     60.0    0.0                                     
                   66-        GRID    13              5.2     60.0    0.0                                     
                   67-        GRID    14              7.1     60.0    0.0                                     
                   68-        GRID    15              7.1     50.0    0.0                                     
                   69-        GRID    16              8.5     40.0    -.25                                    
                   70-        GRID    17              9.7     40.0    -.50                                    
                   71-        GRID    18              8.5     50.0    0.25                                    
                   72-        GRID    19              9.7     50.0    0.50                                    
                   73-        MAT1    1       30.0+6          .3      7.4-4                                   
                   74-        PARAM   CYCIO   +1                                                              
                   75-        PARAM   G       .02                                                             
                   76-        PARAM   GKAD    FREQRESP                                                        
                   77-        PARAM   KMAX    2                                                               
                   78-        PARAM   KMIN    2                                                               
                   79-        PARAM   LGKAD   1                                                               
                   80-        PARAM   LMAX    1                                                               
                   81-        PARAM   NSEGS   12                                                              
                   82-        PARAM   RPS     600.0                                                           
                   83-        PQUAD2  2       1       .25                                                     
                   84-        PQUAD2  3       1       .125                                                    
                   85-        PTRIA2  1       1       .25                                                     
                   86-        SPC1    30      6       1       THRU    19                                      
                   87-        SPC1    30      123456  1       10                                              
                   88-        TLOAD2  1       1                       0.0     5.5131-41813.854-90.0           
                   89-        TLOAD2  2       2                       0.0     5.5131-41813.854-90.0           
                   90-        TLOAD2  3       3                       0.0     5.5131-41813.854-90.0           
                   91-        TLOAD2  4       4                       0.0     5.5131-41813.854-90.0           
                   92-        TLOAD2  5       5                       0.0     5.5131-41813.854-90.0           
                   93-        TLOAD2  6       6                       0.0     5.5131-41813.854-90.0           
                   94-        TLOAD2  7       7                       0.0     5.5131-41813.854-90.0           
1     ROTATING CYCLIC STRUCTURE (TIME DEP. LOADS, PHYSICAL I/O)             /    95 SUN SOLARIS NASTRAN    / MAY 18, 95 / PAGE    15
      NASTRAN TEST PROBLEM NO. T08-02-2A                                                                                            

                                                                                                                                    

                                                  S O R T E D   B U L K    D A T A    E C H O                                       
                     CARD                                                                                                           
                     COUNT        ---1--- +++2+++ ---3--- +++4+++ ---5--- +++6+++ ---7--- +++8+++ ---9--- +++10+++                  
                   95-        TLOAD2  8       8                       0.0     5.5131-41813.854-90.0           
                   96-        TLOAD2  9       9                       0.0     5.5131-41813.854-90.0           
                   97-        TLOAD2  10      10                      0.0     5.5131-41813.854-90.0           
                   98-        TLOAD2  11      11                      0.0     5.5131-41813.854-90.0           
                   99-        TLOAD2  12      12                      0.0     5.5131-41813.854-90.0           
                  100-        TSTEP   1       10      4.5943-51                                               
                              ENDDATA
1     ROTATING CYCLIC STRUCTURE (TIME DEP. LOADS, PHYSICAL I/O)             /    95 SUN SOLARIS NASTRAN    / MAY 18, 95 / PAGE    16
      NASTRAN TEST PROBLEM NO. T08-02-2A                                                                                            
0                                                                                                                                   
0         COSMIC / NASTRAN DMAP COMPILER - SOURCE LISTING                                                                           
                                                                                                                                    
                                                                                                                                    
0  OPTIONS IN EFFECT GO      ERR=2   LIST    NODECK  NOREF   NOOSCAR 
   -----------------


       1  BEGIN    DISP 08 - DIRECT FREQUENCY/RANDOM RESPONSE ANALYSIS-APR. 1995 $

       2  PRECHK   ALL $                                                          

       3  FILE     KGGX=TAPE/KGG=TAPE/GOD=SAVE/GMD=SAVE/MDD=SAVE/BDD=SAVE $       

       3  FILE     UXVF=APPEND/PDT=APPEND/PD=APPEND $                             

       3  COND     ERRORC1,NSEGS $  IF USER HAS NOT SPECIFIED NSEGS.              

       3  COND     ERRORC1,KMAX  $  IF USER HAS NOT SPECIFIED KMAX.               

       3  PARAM    //*EQ*/CYCIOERR /V,Y,CYCIO=0 /0 $                              

       3  COND     ERRORC1,CYCIOERR  $  IF USER HAS NOT SPECIFIED CYCIO.          

       3  PARAM    //*DIV*/NSEG2 /V,Y,NSEGS /2 $  NSEG2 = NSEGS/2                 

       3  PARAM    //*SUB*/KMAXERR /NSEG2 /V,Y,KMAX $                             

       3  COND     ERRORC1,KMAXERR $  IF KMAX .GT. NSEGS/2                        

       3  PARAM    //*NOP*/V,Y,NOKPRT=+1 /V,Y,LGKAD=-1 $                          

       3  PARAMR   //*MPY*/OMEGA /V,Y,RPS=0.0 /6.283185 $                         

       3  PARAMR   //*MPY*/OMEGA2 /2.0 /OMEGA $                                   

       3  PARAMR   //*MPY*/OMEGASQR /OMEGA /OMEGA $                               

       3  PARAMR   //*EQ*//V,Y,RPS /0.0 ////NORPS $                               

       3  PARAM    //*NOT*/NOLUMP /V,Y,COUPMASS=-1 $                              

       3  COND     ERRORC2,NOLUMP $                                               

       4  PARAM    //*MPY*/CARDNO/0/0 $                                           

       5  GP1      GEOM1,GEOM2,/GPL,EQEXIN,GPDT,CSTM,BGPDT,SIL/S,N,LUSET/         
                   S,N,NOGPDT/ALWAYS=-1 $                                         

       6  ANISOP   GEOM1,EPT,BGPDT,EQEXIN,MPT/MPTA/S,N,ISOP $                     
1     ROTATING CYCLIC STRUCTURE (TIME DEP. LOADS, PHYSICAL I/O)             /    95 SUN SOLARIS NASTRAN    / MAY 18, 95 / PAGE    17
      NASTRAN TEST PROBLEM NO. T08-02-2A                                                                                            

                                                                                                                                    

          COSMIC / NASTRAN DMAP COMPILER - SOURCE LISTING                                                                           
                                                                                                                                    
                                                                                                                                    

       7  EQUIV    MPTA,MPT/ISOP $                                                

       8  PLTTRAN  BGPDT,SIL/BGPDP,SIP/LUSET/S,N,LUSEP $                          

       9  PURGE    USET,GM,GO,KAA,BAA,MAA,K4AA,KFS,PSF,QPC,EST,ECT,PLTSETX,PLTPAR,
                   GPSETS,ELSETS/NOGPDT $                                         

      10  COND     LBL5,NOGPDT $                                                  

      11  GP2      GEOM2,EQEXIN/ECT $                                             

      12  PARAML   PCDB//*PRES*////JUMPPLOT $                                     

      13  PURGE    PLTSETX,PLTPAR,GPSETS,ELSETS/JUMPPLOT $                        

      14  COND     P1,JUMPPLOT $                                                  

      15  PLTSET   PCDB,EQEXIN,ECT,EPT/PLTSETX,PLTPAR,GPSETS,ELSETS/S,N,NSIL/     
                   S,N,JUMPPLOT $                                                 

      16  PRTMSG   PLTSETX// $                                                    

      17  PARAM    //*MPY*/PLTFLG/1/1 $                                           

      18  PARAM    //*MPY*/PFILE/0/0 $                                            

      19  COND     P1,JUMPPLOT $                                                  

      20  PLOT     PLTPAR,GPSETS,ELSETS,CASECC,BGPDT,EQEXIN,SIL,,ECT,,,,/PLOTX1/  
                   NSIL/LUSET/S,N,JUMPPLOT/S,N,PLTFLG/S,N,PFILE $                 

      21  PRTMSG   PLOTX1//$                                                      

      22  LABEL    P1 $                                                           

      23  GP3      GEOM3,EQEXIN,GEOM2 / SLT,GPTT / NOGRAV $                       

      24  TA1      ECT,EPT,BGPDT,SIL,GPTT,CSTM,MPT,EQEXIN/EST,GEI,GPECT,,,MPTX,   
                   PCOMPS,EPTX/LUSET/S,N,NOSIMP/1/S,N,NOGENL/GENEL/S,N,COMPS $    

      25  EQUIV    MPTX,MPT/COMPS/EPTX,EPT/COMPS $                                

      26  PURGE    K4GG,MGG,BGG,K4NN,K4FF,K4AA,MNN,MFF,MAA,BNN,BFF,BAA,           
                   KGGX/NOSIMP $                                                  

      26  PARAM    //*MPY*/NSKIP /0/0 $                                           
1     ROTATING CYCLIC STRUCTURE (TIME DEP. LOADS, PHYSICAL I/O)             /    95 SUN SOLARIS NASTRAN    / MAY 18, 95 / PAGE    18
      NASTRAN TEST PROBLEM NO. T08-02-2A                                                                                            

                                                                                                                                    

          COSMIC / NASTRAN DMAP COMPILER - SOURCE LISTING                                                                           
                                                                                                                                    
                                                                                                                                    

      26  GP4      CASECC,GEOM4,EQEXIN,GPDT,BGPDT,CSTM,/RG,YS,USET,ASET,/LUSET/   
                   S,N,MPCF1/S,N,MPCF2/S,N,SINGLE/S,N,OMIT/S,N,REACT/S,N,NSKIP/   
                   S,N,REPEAT/S,N,NOSET/S,N,NOL/S,N,NOA/C,Y,ASETOUT/C,Y,AUTOSPC $ 

      26  PURGE    GM,GMD/MPCF1/GO,GOD/OMIT/KFS,PSF,QPC/SINGLE $                  

      26  PARAM    //*NOT*/REACDATA /REACT $                                      

      26  COND     ERRORC3,REACDATA $                                             

      26  DPD      DYNAMICS,GPL,SIL,USET / GPLD,SILD,USETD,TFPOOL,DLT,PSDL,FRL,,  
                   TRL,,EQDYN / LUSET/S,N,LUSETD/NOTFL/S,N,NODLT/S,N,NOPSDL/      
                   S,N,NOFRL/NONLFT/S,N,NOTRL/NOEED//S,N,NOUE $                   

      26  PARAM    //*AND*/FTERR /NOFRL /NOTRL $                                  

      26  COND     ERRORC5,FTERR $  NO FREQ OR TSTEP BULK DATA.                   

      26  PARAML   CASECC //*TABLE1*/1/14//FREQSET $                              

      26  PARAML   CASECC //*TABLE1*/1/38//TIMESET $                              

      26  PARAM    //*MPY*/FREQTIME /FREQSET /TIMESET $                           

      26  PARAM    //*NOT*/FTERR1 /FREQTIME $                                     

      26  PARAM    //*LE*/NOFREQ /FREQSET /0 $                                    

      26  PARAM    //*LE*/NOTIME /TIMESET /0 $                                    

      26  COND     ERRORC6,FTERR1 $  BOTH FREQ AND TSTEP IN CASE CONTROL DECK.    

      26  PARAM    //*NOT*/EXTRAPTS /NOUE $                                       

      26  COND     ERRORC4,EXTRAPTS $                                             

      26  GPCYC    GEOM4,EQDYN,USETD /CYCDD /CTYPE=ROT /S,N,NOGO $                

      26  COND     ERRORC1,NOGO $                                                 

      27  COND     LBL1,NOSIMP $                                                  

      28  PARAM    //*ADD*/NOKGGX/1/0 $                                           

      29  PARAM    //*ADD*/NOMGG/1/0 $                                            
1     ROTATING CYCLIC STRUCTURE (TIME DEP. LOADS, PHYSICAL I/O)             /    95 SUN SOLARIS NASTRAN    / MAY 18, 95 / PAGE    19
      NASTRAN TEST PROBLEM NO. T08-02-2A                                                                                            

                                                                                                                                    

          COSMIC / NASTRAN DMAP COMPILER - SOURCE LISTING                                                                           
                                                                                                                                    
                                                                                                                                    

      30  PARAM    //*ADD*/NOBGG=-1/1/0 $                                         

      31  PARAM    //*ADD*/NOK4GG/1/0 $                                           

      32  EMG      EST,CSTM,MPT,DIT,GEOM2,/KELM,KDICT,MELM,MDICT,BELM,BDICT,/     
                   S,N,NOKGGX/S,N,NOMGG/S,N,NOBGG/S,N,NOK4GG//C,Y,COUPMASS/       
                   C,Y,CPBAR/C,Y,CPROD/C,Y,CPQUAD1/C,Y,CPQUAD2/C,Y,CPTRIA1/       
                   C,Y,CPTRIA2/C,Y,CPTUBE/C,Y,CPQDPLT/C,Y,CPTRPLT/C,Y,CPTRBSC/    
                   C,Y,VOLUME/C,Y,SURFACE $                                       

      33  PURGE    KGGX/NOKGGX/MGG/NOMGG $                                        

      34  COND     LBLKGGX,NOKGGX $                                               

      35  EMA      GPECT,KDICT,KELM/KGGX $                                        

      36  LABEL    LBLKGGX $                                                      

      36  PARAM    //*OR*/NOBM1 /NOMGG /NORPS $                                   

      36  PURGE    B1GG,M1GG /NOBM1 $                                             

      36  PURGE    M2GG,M2BASEXG /NOMGG $                                         

      37  COND     LBLMGG,NOMGG $                                                 

      38  EMA      GPECT,MDICT,MELM/MGG/-1/C,Y,WTMASS=1.0 $                       

      39  PURGE    MDICT,MELM/ALWAYS $                                            

      39  FVRSTR1  CASECC,BGPDT,CSTM,DIT,FRL,MGG,, / FRLX,B1GG,M1GG,M2GG,BASEXG,  
                   PDZERO,, /NOMGG/V,Y,CYCIO/V,Y,NSEGS/V,Y,KMAX/S,N,FKMAX/        
                   V,Y,BXTID=-1/V,Y,BXPTID=-1/V,Y,BYTID=-1/V,Y,BYPTID=-1/         
                   V,Y,BZTID=-1/V,Y,BZPTID=-1/S,N,NOBASEX/NOFREQ/OMEGA  $         

      39  PARAML   FRLX //*PRES*////NOFRLX $                                      

      39  COND     LBLFRLX,NOFRLX $                                               

      39  EQUIV    FRLX,FRL $                                                     

      39  LABEL    LBLFRLX $                                                      

      40  LABEL    LBLMGG $                                                       

      41  COND     LBLBGG,NOBGG $                                                 
1     ROTATING CYCLIC STRUCTURE (TIME DEP. LOADS, PHYSICAL I/O)             /    95 SUN SOLARIS NASTRAN    / MAY 18, 95 / PAGE    20
      NASTRAN TEST PROBLEM NO. T08-02-2A                                                                                            

                                                                                                                                    

          COSMIC / NASTRAN DMAP COMPILER - SOURCE LISTING                                                                           
                                                                                                                                    
                                                                                                                                    

      42  EMA      GPECT,BDICT,BELM/BGG $                                         

      43  PURGE    BDICT,BELM/ALWAYS $                                            

      44  LABEL    LBLBGG $                                                       

      45  COND     LBLK4GG,NOK4GG $                                               

      46  EMA      GPECT,KDICT,KELM/K4GG/NOK4GG $                                 

      47  LABEL    LBLK4GG $                                                      

      48  PURGE    KDICT,KELM/ALWAYS $                                            

      48  PARAM    //*ADD*/NOBGG /NOBM1 /0 $  RESET NOBGG.                        

      49  PURGE    MNN,MFF,MAA/NOMGG $                                            

      50  PURGE    BNN,BFF,BAA/NOBGG $                                            

      51  COND     LBL1,GRDPNT $                                                  

      52  COND     ERROR4,NOMGG $                                                 

      53  GPWG     BGPDP,CSTM,EQEXIN,MGG/OGPWG/V,Y,GRDPNT=-1/C,Y,WTMASS $         

      54  OFP      OGPWG,,,,,//S,N,CARDNO $                                       

      55  LABEL    LBL1 $                                                         

      56  EQUIV    KGGX,KGG/NOGENL $                                              

      57  COND     LBL11,NOGENL $                                                 

      58  SMA3     GEI,KGGX/KGG/LUSET/NOGENL/NOSIMP $                             

      59  LABEL    LBL11 $                                                        

      60  GPSTGEN  KGG,SIL/GPST $                                                 

      60  COND     LBL11A,NOBM1 $                                                 

      60  PARAMR   //*COMPLEX*// OMEGA2 /0.0/ CMPLX1 $                            

      60  PARAMR   //*SUB*/ MOMEGASQ / 0.0 / OMEGASQR $                           
1     ROTATING CYCLIC STRUCTURE (TIME DEP. LOADS, PHYSICAL I/O)             /    95 SUN SOLARIS NASTRAN    / MAY 18, 95 / PAGE    21
      NASTRAN TEST PROBLEM NO. T08-02-2A                                                                                            

                                                                                                                                    

          COSMIC / NASTRAN DMAP COMPILER - SOURCE LISTING                                                                           
                                                                                                                                    
                                                                                                                                    

      60  PARAMR   //*COMPLEX*// MOMEGASQ / 0.0 / CMPLX2 $                        

      60  ADD      BGG,B1GG / BGG1 / (1.0,0.0) / CMPLX1 $                         

      60  EQUIV    BGG1,BGG $                                                     

      60  ADD      KGG,M1GG / KGG1 / (1.0,0.0) / CMPLX2 $                         

      60  EQUIV    KGG1,KGG $                                                     

      60  LABEL    LBL11A                                                         

      65  EQUIV    KGG,KNN/MPCF1/MGG,MNN/MPCF1/ BGG,BNN/MPCF1/K4GG,K4NN/MPCF1 $   

      66  COND     LBL2,MPCF1 $                                                   

      67  MCE1     USET,RG/GM $                                                   

      68  MCE2     USET,GM,KGG,MGG,BGG,K4GG/KNN,MNN,BNN,K4NN $                    

      69  LABEL    LBL2 $                                                         

      70  EQUIV    KNN,KFF/SINGLE/MNN,MFF/SINGLE/BNN,BFF/SINGLE/K4NN,K4FF/SINGLE $

      71  COND     LBL3,SINGLE $                                                  

      72  SCE1     USET,KNN,MNN,BNN,K4NN/KFF,KFS,,MFF,BFF,K4FF $                  

      73  LABEL    LBL3 $                                                         

      74  EQUIV    KFF,KAA/OMIT $                                                 

      75  EQUIV    MFF,MAA/OMIT $                                                 

      76  EQUIV    BFF,BAA/OMIT $                                                 

      77  EQUIV    K4FF,K4AA/OMIT $                                               

      78  COND     LBL5,OMIT $                                                    

      79  SMP1     USET,KFF,,,/GO,KAA,KOO,LOO,,,,, $                              

      80  COND     LBLM,NOMGG $                                                   

      81  SMP2     USET,GO,MFF/MAA $                                              
1     ROTATING CYCLIC STRUCTURE (TIME DEP. LOADS, PHYSICAL I/O)             /    95 SUN SOLARIS NASTRAN    / MAY 18, 95 / PAGE    22
      NASTRAN TEST PROBLEM NO. T08-02-2A                                                                                            

                                                                                                                                    

          COSMIC / NASTRAN DMAP COMPILER - SOURCE LISTING                                                                           
                                                                                                                                    
                                                                                                                                    

      82  LABEL    LBLM $                                                         

      83  COND     LBLB,NOBGG $                                                   

      84  SMP2     USET,GO,BFF/BAA $                                              

      85  LABEL    LBLB $                                                         

      86  COND     LBL5,NOK4GG $                                                  

      87  SMP2     USET,GO,K4FF/K4AA $                                            

      88  LABEL    LBL5 $                                                         

      90  EQUIV    GO,GOD/NOUE/GM,GMD/NOUE $                                      

      91  PARAM    //*ADD*/NEVER/1/0 $                                            

      92  PARAM    //*MPY*/REPEATF/-1/1 $                                         

      93  BMG      MATPOOL,BGPDT,EQEXIN,CSTM/BDPOOL/S,N,NOKBFL/S,N,NOABFL/        
                   S,N,MFACT $                                                    

      94  PARAM    //*AND*/NOFL/NOABFL/NOKBFL $                                   

      95  PURGE    KBFL/NOKBFL/ ABFL/NOABFL $                                     

      96  COND     LBL13,NOFL $                                                   

      97  MTRXIN,  ,BDPOOL,EQDYN,,/ABFL,KBFL,/LUSETD/S,N,NOABFL/S,N,NOKBFL/       
                   0 $                                                            

      98  LABEL    LBL13 $                                                        

      99  PURGE    OUDVC1,OUDVC2,XYPLTFA,OPPC1,OQPC1,OUPVC1,OESC1,OEFC1,OPPC2,    
                   OQPC2,OUPVC2,OESC2,OEFC2,XYPLTF,PSDF,AUTO,XYPLTR,              
                   K2PP,M2PP,B2PP,K2DD,M2DD,B2DD/NEVER $                          

     100  CASE     CASECC,PSDL/CASEXX/*FREQ*/S,N,REPEATF/S,N,NOLOOP $             

     101  MTRXIN   CASEXX,MATPOOL,EQDYN,,TFPOOL/K2DPP,M2DPP,B2PP/LUSETD/S,N,      
                   NOK2DPP/S,N,NOM2DPP/S,N,NOB2PP $                               

     102  PARAM    //*AND*/NOM2PP/NOABFL/NOM2DPP $                                

     103  PARAM    //*AND*/NOK2PP/NOFL  /NOK2DPP $                                
1     ROTATING CYCLIC STRUCTURE (TIME DEP. LOADS, PHYSICAL I/O)             /    95 SUN SOLARIS NASTRAN    / MAY 18, 95 / PAGE    23
      NASTRAN TEST PROBLEM NO. T08-02-2A                                                                                            

                                                                                                                                    

          COSMIC / NASTRAN DMAP COMPILER - SOURCE LISTING                                                                           
                                                                                                                                    
                                                                                                                                    

     104  EQUIV    K2DPP,K2PP/NOFL/M2DPP,M2PP/NOABFL $                            

     105  COND     LBLFL2,NOFL $                                                  

     106  ADD5     ABFL,KBFL,K2DPP,,/K2PP/(-1.0,0.0) $                            

     107  COND     LBLFL2,NOABFL $                                                

     108  TRNSP    ABFL/ABFLT $                                                   

     109  ADD      ABFLT,M2DPP/M2PP/MFACT/(1.0,0.0) $                             

     110  LABEL    LBLFL2 $                                                       

     111  PARAM    //*AND*/BDEBA/NOUE/NOB2PP $                                    

     112  PARAM    //*AND*/KDEK2/NOGENL/NOSIMP $                                  

     113  PARAM    //*AND*/MDEMA/NOUE/NOM2PP $                                    

     114  PURGE    K2DD/NOK2PP/M2DD/NOM2PP/B2DD/NOB2PP $                          

     114  PARAM    //*AND*/KDEKA/NOUE/NOK2PP $                                    

     114  COND     LGKAD1,LGKAD $  BRANCH IN NOT FREQRESP.                        

     115  EQUIV    M2PP,M2DD/NOA/B2PP,B2DD/NOA/K2PP,K2DD/NOA/                     
[...]
0     SEGMENT 1                                                                                                SUBCASE 1            
      ELEMENT-ID =      11

      C O M P L E X   S T R E S S E S   I N   G E N E R A L   Q U A D R I L I A T E R A L   E L E M E N T S   ( C Q U A D 2 )
                                                         (MAGNITUDE/PHASE)
 
                    FIBRE                                     - STRESSES IN ELEMENT COORDINATE SYSTEM -
    FREQUENCY,6X,8HDISTANCE                  NORMAL-X                          NORMAL-Y                         SHEAR-XY
0  0.0          -6.250000E-02      7.259272E-04 / 178.8542           1.494002E-04 / 178.8542           9.090402E-05 / 178.8542      
                 6.250000E-02      7.278540E-04 / 358.8542           1.482291E-04 / 358.8542           8.445042E-05 / 358.8542      
0  1.813842E+03 -6.250000E-02      2.585664E-02 /  79.4725           3.601989E-03 /  79.7189           1.627299E-03 /  77.0431      
                 6.250000E-02      2.555313E-02 / 261.1169           3.892161E-03 / 261.3012           3.084221E-03 / 261.1436      
0  1.813842E+03 -6.250000E-02      1.450247E+03 /  79.4725           2.020284E+02 /  79.7188           9.127180E+01 /  77.0431      
                 6.250000E-02      1.433224E+03 / 261.1169           2.183035E+02 / 261.3012           1.729877E+02 / 261.1436      
1     ROTATING CYCLIC STRUCTURE (TIME DEP. LOADS, PHYSICAL I/O)             /    95 SUN SOLARIS NASTRAN    / MAY 18, 95 / PAGE   117
      NASTRAN TEST PROBLEM NO. T08-02-2A                                                                                            
0     SEGMENT 2                                                                                                SUBCASE 2            
      ELEMENT-ID =      11

      C O M P L E X   S T R E S S E S   I N   G E N E R A L   Q U A D R I L I A T E R A L   E L E M E N T S   ( C Q U A D 2 )
                                                         (MAGNITUDE/PHASE)
 
                    FIBRE                                     - STRESSES IN ELEMENT COORDINATE SYSTEM -
    FREQUENCY,6X,8HDISTANCE                  NORMAL-X                          NORMAL-Y                         SHEAR-XY
0  0.0          -6.250000E-02      3.612966E-04 / 178.8542           7.650215E-05 / 178.8542           4.759038E-05 / 178.8542      
                 6.250000E-02      3.632019E-04 / 358.8542           7.584626E-05 / 358.8542           4.442726E-05 / 358.8542      
0  1.813842E+03 -6.250000E-02      1.482562E-02 /  76.8770           2.322681E-03 /  76.4903           2.077796E-03 /  75.6376      
                 6.250000E-02      1.446412E-02 / 258.6485           2.415987E-03 / 257.1886           2.920436E-03 / 256.1883      
0  1.813842E+03 -6.250000E-02      8.315390E+02 /  76.8770           1.302745E+02 /  76.4903           1.165393E+02 /  75.6376      
                 6.250000E-02      8.112634E+02 / 258.6485           1.355079E+02 / 257.1886           1.638012E+02 / 256.1883      
1     ROTATING CYCLIC STRUCTURE (TIME DEP. LOADS, PHYSICAL I/O)             /    95 SUN SOLARIS NASTRAN    / MAY 18, 95 / PAGE   118
      NASTRAN TEST PROBLEM NO. T08-02-2A                                                                                            
0     SEGMENT 3                                                                                                SUBCASE 3            
      ELEMENT-ID =      11

      C O M P L E X   S T R E S S E S   I N   G E N E R A L   Q U A D R I L I A T E R A L   E L E M E N T S   ( C Q U A D 2 )
                                                         (MAGNITUDE/PHASE)
 
                    FIBRE                                     - STRESSES IN ELEMENT COORDINATE SYSTEM -
    FREQUENCY,6X,8HDISTANCE                  NORMAL-X                          NORMAL-Y                         SHEAR-XY
0  0.0          -6.250000E-02      3.646302E-04 / 358.8542           7.289708E-05 / 358.8542           4.331315E-05 / 358.8542      
                 6.250000E-02      3.646526E-04 / 178.8542           7.238358E-05 / 178.8542           4.002242E-05 / 178.8542      
0  1.813842E+03 -6.250000E-02      1.106662E-02 / 262.9505           1.289643E-03 / 265.5404           4.527489E-04 /  70.5799      
                 6.250000E-02      1.111990E-02 /  84.3284           1.492488E-03 /  87.9678           3.068515E-04 / 136.4398      
0  1.813842E+03 -6.250000E-02      6.207045E+02 / 262.9505           7.233345E+01 / 265.5404           2.539389E+01 /  70.5800      
                 6.250000E-02      6.236929E+02 /  84.3284           8.371075E+01 /  87.9678           1.721067E+01 / 136.4398      
1     ROTATING CYCLIC STRUCTURE (TIME DEP. LOADS, PHYSICAL I/O)             /    95 SUN SOLARIS NASTRAN    / MAY 18, 95 / PAGE   119
      NASTRAN TEST PROBLEM NO. T08-02-2A                                                                                            
0     SEGMENT 4                                                                                                SUBCASE 4            
      ELEMENT-ID =      11

      C O M P L E X   S T R E S S E S   I N   G E N E R A L   Q U A D R I L I A T E R A L   E L E M E N T S   ( C Q U A D 2 )
                                                         (MAGNITUDE/PHASE)
 
                    FIBRE                                     - STRESSES IN ELEMENT COORDINATE SYSTEM -
    FREQUENCY,6X,8HDISTANCE                  NORMAL-X                          NORMAL-Y                         SHEAR-XY
0  0.0          -6.250000E-02      7.259272E-04 / 358.8542           1.494002E-04 / 358.8542           9.090402E-05 / 358.8542      
                 6.250000E-02      7.278540E-04 / 178.8542           1.482291E-04 / 178.8542           8.445042E-05 / 178.8542      
0  1.813842E+03 -6.250000E-02      2.585664E-02 / 259.4725           3.601989E-03 / 259.7189           1.627299E-03 / 257.0431      
                 6.250000E-02      2.555313E-02 /  81.1169           3.892161E-03 /  81.3012           3.084221E-03 /  81.1436      
0  1.813842E+03 -6.250000E-02      1.450247E+03 / 259.4725           2.020284E+02 / 259.7188           9.127180E+01 / 257.0431      
                 6.250000E-02      1.433224E+03 /  81.1169           2.183035E+02 /  81.3012           1.729877E+02 /  81.1436      
1     ROTATING CYCLIC STRUCTURE (TIME DEP. LOADS, PHYSICAL I/O)             /    95 SUN SOLARIS NASTRAN    / MAY 18, 95 / PAGE   120
      NASTRAN TEST PROBLEM NO. T08-02-2A                                                                                            
0     SEGMENT 5                                                                                                SUBCASE 5            
      ELEMENT-ID =      11

      C O M P L E X   S T R E S S E S   I N   G E N E R A L   Q U A D R I L I A T E R A L   E L E M E N T S   ( C Q U A D 2 )
                                                         (MAGNITUDE/PHASE)
 
                    FIBRE                                     - STRESSES IN ELEMENT COORDINATE SYSTEM -
    FREQUENCY,6X,8HDISTANCE                  NORMAL-X                          NORMAL-Y                         SHEAR-XY
0  0.0          -6.250000E-02      3.612966E-04 / 358.8542           7.650215E-05 / 358.8542           4.759038E-05 / 358.8542      
                 6.250000E-02      3.632019E-04 / 178.8542           7.584626E-05 / 178.8542           4.442726E-05 / 178.8542      
0  1.813842E+03 -6.250000E-02      1.482562E-02 / 256.8770           2.322681E-03 / 256.4903           2.077796E-03 / 255.6376      
                 6.250000E-02      1.446412E-02 /  78.6485           2.415987E-03 /  77.1886           2.920436E-03 /  76.1883      
0  1.813842E+03 -6.250000E-02      8.315390E+02 / 256.8770           1.302745E+02 / 256.4903           1.165393E+02 / 255.6376      
                 6.250000E-02      8.112634E+02 /  78.6485           1.355079E+02 /  77.1886           1.638012E+02 /  76.1883      
1     ROTATING CYCLIC STRUCTURE (TIME DEP. LOADS, PHYSICAL I/O)             /    95 SUN SOLARIS NASTRAN    / MAY 18, 95 / PAGE   121
      NASTRAN TEST PROBLEM NO. T08-02-2A                                                                                            
0     SEGMENT 6                                                                                                SUBCASE 6            
      ELEMENT-ID =      11

      C O M P L E X   S T R E S S E S   I N   G E N E R A L   Q U A D R I L I A T E R A L   E L E M E N T S   ( C Q U A D 2 )
                                                         (MAGNITUDE/PHASE)
 
                    FIBRE                                     - STRESSES IN ELEMENT COORDINATE SYSTEM -
    FREQUENCY,6X,8HDISTANCE                  NORMAL-X                          NORMAL-Y                         SHEAR-XY
0  0.0          -6.250000E-02      3.646302E-04 / 178.8542           7.289708E-05 / 178.8542           4.331315E-05 / 178.8542      
                 6.250000E-02      3.646526E-04 / 358.8542           7.238358E-05 / 358.8542           4.002242E-05 / 358.8542      
0  1.813842E+03 -6.250000E-02      1.106662E-02 /  82.9505           1.289643E-03 /  85.5404           4.527489E-04 / 250.5799      
                 6.250000E-02      1.111990E-02 / 264.3284           1.492488E-03 / 267.9678           3.068515E-04 / 316.4398      
0  1.813842E+03 -6.250000E-02      6.207045E+02 /  82.9505           7.233345E+01 /  85.5404           2.539389E+01 / 250.5800      
                 6.250000E-02      6.236929E+02 / 264.3284           8.371075E+01 / 267.9678           1.721067E+01 / 316.4398      
1     ROTATING CYCLIC STRUCTURE (TIME DEP. LOADS, PHYSICAL I/O)             /    95 SUN SOLARIS NASTRAN    / MAY 18, 95 / PAGE   122
      NASTRAN TEST PROBLEM NO. T08-02-2A                                                                                            
0     SEGMENT 7                                                                                                SUBCASE 7            
      ELEMENT-ID =      11

      C O M P L E X   S T R E S S E S   I N   G E N E R A L   Q U A D R I L I A T E R A L   E L E M E N T S   ( C Q U A D 2 )
                                                         (MAGNITUDE/PHASE)
 
                    FIBRE                                     - STRESSES IN ELEMENT COORDINATE SYSTEM -
    FREQUENCY,6X,8HDISTANCE                  NORMAL-X                          NORMAL-Y                         SHEAR-XY
0  0.0          -6.250000E-02      7.259272E-04 / 178.8542           1.494002E-04 / 178.8542           9.090402E-05 / 178.8542      
                 6.250000E-02      7.278540E-04 / 358.8542           1.482291E-04 / 358.8542           8.445042E-05 / 358.8542      
0  1.813842E+03 -6.250000E-02      2.585664E-02 /  79.4725           3.601989E-03 /  79.7189           1.627299E-03 /  77.0431      
                 6.250000E-02      2.555313E-02 / 261.1169           3.892161E-03 / 261.3012           3.084221E-03 / 261.1436      
0  1.813842E+03 -6.250000E-02      1.450247E+03 /  79.4725           2.020284E+02 /  79.7188           9.127180E+01 /  77.0431      
                 6.250000E-02      1.433224E+03 / 261.1169           2.183035E+02 / 261.3012           1.729877E+02 / 261.1436      
1     ROTATING CYCLIC STRUCTURE (TIME DEP. LOADS, PHYSICAL I/O)             /    95 SUN SOLARIS NASTRAN    / MAY 18, 95 / PAGE   123
      NASTRAN TEST PROBLEM NO. T08-02-2A                                                                                            
0     SEGMENT 8                                                                                                SUBCASE 8            
      ELEMENT-ID =      11

      C O M P L E X   S T R E S S E S   I N   G E N E R A L   Q U A D R I L I A T E R A L   E L E M E N T S   ( C Q U A D 2 )
                                                         (MAGNITUDE/PHASE)
 
                    FIBRE                                     - STRESSES IN ELEMENT COORDINATE SYSTEM -
    FREQUENCY,6X,8HDISTANCE                  NORMAL-X                          NORMAL-Y                         SHEAR-XY
0  0.0          -6.250000E-02      3.612966E-04 / 178.8542           7.650215E-05 / 178.8542           4.759038E-05 / 178.8542      
                 6.250000E-02      3.632019E-04 / 358.8542           7.584626E-05 / 358.8542           4.442726E-05 / 358.8542      
0  1.813842E+03 -6.250000E-02      1.482562E-02 /  76.8770           2.322681E-03 /  76.4903           2.077796E-03 /  75.6376      
                 6.250000E-02      1.446412E-02 / 258.6485           2.415987E-03 / 257.1886           2.920436E-03 / 256.1883      
0  1.813842E+03 -6.250000E-02      8.315390E+02 /  76.8770           1.302745E+02 /  76.4903           1.165393E+02 /  75.6376      
                 6.250000E-02      8.112634E+02 / 258.6485           1.355079E+02 / 257.1886           1.638012E+02 / 256.1883      
1     ROTATING CYCLIC STRUCTURE (TIME DEP. LOADS, PHYSICAL I/O)             /    95 SUN SOLARIS NASTRAN    / MAY 18, 95 / PAGE   124
      NASTRAN TEST PROBLEM NO. T08-02-2A                                                                                            
0     SEGMENT 9                                                                                                SUBCASE 9            
      ELEMENT-ID =      11

      C O M P L E X   S T R E S S E S   I N   G E N E R A L   Q U A D R I L I A T E R A L   E L E M E N T S   ( C Q U A D 2 )
                                                         (MAGNITUDE/PHASE)
 
                    FIBRE                                     - STRESSES IN ELEMENT COORDINATE SYSTEM -
    FREQUENCY,6X,8HDISTANCE                  NORMAL-X                          NORMAL-Y                         SHEAR-XY
0  0.0          -6.250000E-02      3.646302E-04 / 358.8542           7.289708E-05 / 358.8542           4.331315E-05 / 358.8542      
                 6.250000E-02      3.646526E-04 / 178.8542           7.238358E-05 / 178.8542           4.002242E-05 / 178.8542      
0  1.813842E+03 -6.250000E-02      1.106662E-02 / 262.9505           1.289643E-03 / 265.5404           4.527489E-04 /  70.5799      
                 6.250000E-02      1.111990E-02 /  84.3284           1.492488E-03 /  87.9678           3.068515E-04 / 136.4398      
0  1.813842E+03 -6.250000E-02      6.207045E+02 / 262.9505           7.233345E+01 / 265.5404           2.539389E+01 /  70.5800      
                 6.250000E-02      6.236929E+02 /  84.3284           8.371075E+01 /  87.9678           1.721067E+01 / 136.4398      
1     ROTATING CYCLIC STRUCTURE (TIME DEP. LOADS, PHYSICAL I/O)             /    95 SUN SOLARIS NASTRAN    / MAY 18, 95 / PAGE   125
      NASTRAN TEST PROBLEM NO. T08-02-2A                                                                                            
0     SEGMENT 10                                                                                               SUBCASE 10           
      ELEMENT-ID =      11

      C O M P L E X   S T R E S S E S   I N   G E N E R A L   Q U A D R I L I A T E R A L   E L E M E N T S   ( C Q U A D 2 )
                                                         (MAGNITUDE/PHASE)
 
                    FIBRE                                     - STRESSES IN ELEMENT COORDINATE SYSTEM -
    FREQUENCY,6X,8HDISTANCE                  NORMAL-X                          NORMAL-Y                         SHEAR-XY
0  0.0          -6.250000E-02      7.259272E-04 / 358.8542           1.494002E-04 / 358.8542           9.090402E-05 / 358.8542      
                 6.250000E-02      7.278540E-04 / 178.8542           1.482291E-04 / 178.8542           8.445042E-05 / 178.8542      
0  1.813842E+03 -6.250000E-02      2.585664E-02 / 259.4725           3.601989E-03 / 259.7189           1.627299E-03 / 257.0431      
                 6.250000E-02      2.555313E-02 /  81.1169           3.892161E-03 /  81.3012           3.084221E-03 /  81.1436      
0  1.813842E+03 -6.250000E-02      1.450247E+03 / 259.4725           2.020284E+02 / 259.7188           9.127180E+01 / 257.0431      
                 6.250000E-02      1.433224E+03 /  81.1169           2.183035E+02 /  81.3012           1.729877E+02 /  81.1436      
1     ROTATING CYCLIC STRUCTURE (TIME DEP. LOADS, PHYSICAL I/O)             /    95 SUN SOLARIS NASTRAN    / MAY 18, 95 / PAGE   126
      NASTRAN TEST PROBLEM NO. T08-02-2A                                                                                            
0     SEGMENT 11                                                                                               SUBCASE 11           
      ELEMENT-ID =      11

      C O M P L E X   S T R E S S E S   I N   G E N E R A L   Q U A D R I L I A T E R A L   E L E M E N T S   ( C Q U A D 2 )
                                                         (MAGNITUDE/PHASE)
 
                    FIBRE                                     - STRESSES IN ELEMENT COORDINATE SYSTEM -
    FREQUENCY,6X,8HDISTANCE                  NORMAL-X                          NORMAL-Y                         SHEAR-XY
0  0.0          -6.250000E-02      3.612966E-04 / 358.8542           7.650215E-05 / 358.8542           4.759038E-05 / 358.8542      
                 6.250000E-02      3.632019E-04 / 178.8542           7.584626E-05 / 178.8542           4.442726E-05 / 178.8542      
0  1.813842E+03 -6.250000E-02      1.482562E-02 / 256.8770           2.322681E-03 / 256.4903           2.077796E-03 / 255.6376      
                 6.250000E-02      1.446412E-02 /  78.6485           2.415987E-03 /  77.1886           2.920436E-03 /  76.1883      
0  1.813842E+03 -6.250000E-02      8.315390E+02 / 256.8770           1.302745E+02 / 256.4903           1.165393E+02 / 255.6376      
                 6.250000E-02      8.112634E+02 /  78.6485           1.355079E+02 /  77.1886           1.638012E+02 /  76.1883      
1     ROTATING CYCLIC STRUCTURE (TIME DEP. LOADS, PHYSICAL I/O)             /    95 SUN SOLARIS NASTRAN    / MAY 18, 95 / PAGE   127
      NASTRAN TEST PROBLEM NO. T08-02-2A                                                                                            
0     SEGMENT 12                                                                                               SUBCASE 12           
      ELEMENT-ID =      11

      C O M P L E X   S T R E S S E S   I N   G E N E R A L   Q U A D R I L I A T E R A L   E L E M E N T S   ( C Q U A D 2 )
                                                         (MAGNITUDE/PHASE)
 
                    FIBRE                                     - STRESSES IN ELEMENT COORDINATE SYSTEM -
    FREQUENCY,6X,8HDISTANCE                  NORMAL-X                          NORMAL-Y                         SHEAR-XY
0  0.0          -6.250000E-02      3.646302E-04 / 178.8542           7.289708E-05 / 178.8542           4.331315E-05 / 178.8542      
                 6.250000E-02      3.646526E-04 / 358.8542           7.238358E-05 / 358.8542           4.002242E-05 / 358.8542      
0  1.813842E+03 -6.250000E-02      1.106662E-02 /  82.9505           1.289643E-03 /  85.5404           4.527489E-04 / 250.5799      
                 6.250000E-02      1.111990E-02 / 264.3284           1.492488E-03 / 267.9678           3.068515E-04 / 316.4398      
0  1.813842E+03 -6.250000E-02      6.207045E+02 /  82.9505           7.233345E+01 /  85.5404           2.539389E+01 / 250.5800      
                 6.250000E-02      6.236929E+02 / 264.3284           8.371075E+01 / 267.9678           1.721067E+01 / 316.4398      




                                        * * * END OF JOB * * *
1
 JOB TITLE =  ROTATING CYCLIC STRUCTURE (TIME DEP. LOADS, PHYSICAL I/O)          
 DATE:  5/18/95
 END TIME: 10:31:42
 TOTAL WALL CLOCK TIME      3 SEC.
 
