     NASTRAN FILES = PLT2                                                            






                                  ****
                                *      *
                               *        *
                               *  N A S T R A N
                               *        *
                                *      *
                                  ****


                             SUN COMPUTER SYSTEMS    
                                SOLARIS VERSION

                          SYSTEM RELEASE -  1995 ED.

                                DISTRIBUTED BY

         COMPUTER SOFTWARE MANAGEMENT AND INFORMATION CENTER (COSMIC)
                 UNIVERSITY OF GEORGIA, ATHENS, GEORGIA 30602
                 PHONE: (706)542-3265      FAX: (706)542-4807
1                                                                           /    95 SUN SOLARIS NASTRAN    / MAY 18, 95 / PAGE     2
                                                                                                                                    
0                                                                                                                                   
                                                                                                         
                                                                                                         
                         INSTALLATION CENTER USER INFORMATION GIVEN IN THIS SECTION                      
                                                                                                         
                                     *********************************************                       
                                     *                                           *                       
                                     *  PLEASE READ THE COMMENT IN DEMO PROBLEM  *                       
                                     *  D01002A ABOUT SYSTEM TIMING CONSTANTS    *                       
                                     *                                           *                       
                                     *********************************************                       
                                                                                                         
                         ===X=    TOP OF PAGE REQUEST IF 'X' IS REPLACED BY '='                          
                                                                                                         
1                                                                           /    95 SUN SOLARIS NASTRAN    / MAY 18, 95 / PAGE     3
                                                                                                                                    
0                                                                                                                                   
0*** USER INFORMATION MESSAGE 225, GINO TIME CONSTANTS ARE BEING COMPUTED
     (SEE NASINFO FILE FOR ELIMINATION OF THESE COMPUTATIONS)
1                                                                           /    95 SUN SOLARIS NASTRAN    / MAY 18, 95 / PAGE     4
                                                                                                                                    
0        N A S T R A N    E X E C U T I V E    C O N T R O L    D E C K    E C H O                                                  
0                                                                                                                                   
                                                                                                                                    
                                                                                                                                    
     ID    T08021A,NASTRAN                                                           
     APP   DISP                                                                      
     SOL   8                                                                         
     DIAG  14                                                                        
     TIME  50                                                                        
     $                                                                               
0*** $   ... READFILE FROM-  COSDFVA                                                 
     $ COSMIC ALTERS FOR DIRECT FORCED VIBRATION ANALYSIS (COSDFVA)                  
     $ ALTER    3 $                                                                  
     INSERT FILE $                                                                   
     FILE     UXVF=APPEND/PDT=APPEND/PD=APPEND $                                     
     $ PERFORM INITIAL ERROR CHECKS ON NSEGS AND KMAX.                               
     COND     ERRORC1,NSEGS $  IF USER HAS NOT SPECIFIED NSEGS.                      
     COND     ERRORC1,KMAX  $  IF USER HAS NOT SPECIFIED KMAX.                       
     PARAM    //*EQ*/CYCIOERR /V,Y,CYCIO=0 /0 $                                      
     COND     ERRORC1,CYCIOERR  $  IF USER HAS NOT SPECIFIED CYCIO.                  
     PARAM    //*DIV*/NSEG2 /V,Y,NSEGS /2 $  NSEG2 = NSEGS/2                         
     PARAM    //*SUB*/KMAXERR /NSEG2 /V,Y,KMAX $                                     
     COND     ERRORC1,KMAXERR $  IF KMAX .GT. NSEGS/2                                
     $ SET DEFAULTS FOR PARAMETERS.                                                  
     PARAM    //*NOP*/V,Y,NOKPRT=+1 /V,Y,LGKAD=-1 $                                  
     $ CALCULATE OMEGA, 2*OMEGA AND OMEGA**2 FROM RPS. SET DEFAULT RPS.              
     PARAMR   //*MPY*/OMEGA /V,Y,RPS=0.0 /6.283185 $                                 
     PARAMR   //*MPY*/OMEGA2 /2.0 /OMEGA $                                           
     PARAMR   //*MPY*/OMEGASQR /OMEGA /OMEGA $                                       
     $ GENERATE NORPS FLAG IF RPS IS ZERO.                                           
     PARAMR   //*EQ*//V,Y,RPS /0.0 ////NORPS $                                       
     $ MAKE SURE COUPLED MASSES HAVE NOT BEEN REQUESTED.                             
     PARAM    //*NOT*/NOLUMP /V,Y,COUPMASS=-1 $                                      
     COND     ERRORC2,NOLUMP $                                                       
     $ ALTER    21,21 $  ADD SLT TO OUTPUT FOR TRLG.                                 
     DELETE GP3 $                                                                    
     GP3      GEOM3,EQEXIN,GEOM2 / SLT,GPTT / NOGRAV $                               
     $ ALTER    24 $                                                                 
     INSERT TA1,2 $                                                                  
     $ SINCE MULTIPLE CONSTRAINTS ARE NOT ALLOWED EXECUTE GP4 NOW SO THAT            
     $ MORE ERROR CHECKS CAN BE MADE BEFORE ELEMENT GENERATION.                      
     $ ADD YS NEEDED FOR PSF RECOVERY IN SSG2.                                       
     PARAM    //*MPY*/NSKIP /0/0 $                                                   
     GP4      CASECC,GEOM4,EQEXIN,GPDT,BGPDT,CSTM,/RG,YS,USET,ASET,/LUSET/           
              S,N,MPCF1/S,N,MPCF2/S,N,SINGLE/S,N,OMIT/S,N,REACT/S,N,NSKIP/           
              S,N,REPEAT/S,N,NOSET/S,N,NOL/S,N,NOA/C,Y,ASETOUT/C,Y,AUTOSPC $         
     PURGE    GM,GMD/MPCF1/GO,GOD/OMIT/KFS,PSF,QPC/SINGLE $                          
     $ SUPORT BULK DATA IS NOT ALLOWED.                                              
     PARAM    //*NOT*/REACDATA /REACT $                                              
     COND     ERRORC3,REACDATA $                                                     
1                                                                           /    95 SUN SOLARIS NASTRAN    / MAY 18, 95 / PAGE     5
                                                                                                                                    
0        N A S T R A N    E X E C U T I V E    C O N T R O L    D E C K    E C H O                                                  
0                                                                                                                                   
                                                                                                                                    
                                                                                                                                    
     $ EXECUTE DPD NOW SO CHECKS CAN BE MADE. ADD TRL TO OUTPUT DATA BLOCKS.         
     DPD      DYNAMICS,GPL,SIL,USET / GPLD,SILD,USETD,TFPOOL,DLT,PSDL,FRL,,          
              TRL,,EQDYN / LUSET/S,N,LUSETD/NOTFL/S,N,NODLT/S,N,NOPSDL/              
              S,N,NOFRL/NONLFT/S,N,NOTRL/NOEED//S,N,NOUE $                           
     $ MUST HAVE EITHER FREQ OR TSTEP BULK DATA.                                     
     PARAM    //*AND*/FTERR /NOFRL /NOTRL $                                          
     COND     ERRORC5,FTERR $  NO FREQ OR TSTEP BULK DATA.                           
     $ ONLY FREQUENCY OR TSTEP IS ALLOWED IN THE CASE CONTROL                        
     PARAML   CASECC //*TABLE1*/1/14//FREQSET $                                      
     PARAML   CASECC //*TABLE1*/1/38//TIMESET $                                      
     PARAM    //*MPY*/FREQTIME /FREQSET /TIMESET $                                   
     PARAM    //*NOT*/FTERR1 /FREQTIME $                                             
     PARAM    //*LE*/NOFREQ /FREQSET /0 $                                            
     PARAM    //*LE*/NOTIME /TIMESET /0 $                                            
     COND     ERRORC6,FTERR1 $  BOTH FREQ AND TSTEP IN CASE CONTROL DECK.            
     $ EPOINT BULK DATA NOT ALLOWED                                                  
     PARAM    //*NOT*/EXTRAPTS /NOUE $                                               
     COND     ERRORC4,EXTRAPTS $                                                     
     $ GENERATE DATA FOR CYCT2 MODULE.                                               
     GPCYC    GEOM4,EQDYN,USETD /CYCDD /CTYPE=ROT /S,N,NOGO $                        
     COND     ERRORC1,NOGO $                                                         
     $ ALTER    34 $                                                                 
     INSERT EMA,1 $                                                                  
     $ PRE-PURGE DATA BLOCKS THAT WILL NOT BE GENERATED                              
     PARAM    //*OR*/NOBM1 /NOMGG /NORPS $                                           
     PURGE    B1GG,M1GG /NOBM1 $                                                     
     PURGE    M2GG,M2BASEXG /NOMGG $                                                 
     $ ALTER    38 $                                                                 
     INSERT EMA(2),1 $                                                               
     $ GENERATE DATA BLOCKS FRLX, B1GG, M1GG, M2GG AND BASEGX.                       
     $ GENERATE PARAMETERS FKMAX AND NOBASEX.                                        
     FVRSTR1  CASECC,BGPDT,CSTM,DIT,FRL,MGG,, / FRLX,B1GG,M1GG,M2GG,BASEXG,          
              PDZERO,, /NOMGG/V,Y,CYCIO/V,Y,NSEGS/V,Y,KMAX/S,N,FKMAX/                
              V,Y,BXTID=-1/V,Y,BXPTID=-1/V,Y,BYTID=-1/V,Y,BYPTID=-1/                 
              V,Y,BZTID=-1/V,Y,BZPTID=-1/S,N,NOBASEX/NOFREQ/OMEGA  $                 
     PARAML   FRLX //*PRES*////NOFRLX $                                              
     COND     LBLFRLX,NOFRLX $                                                       
     EQUIV    FRLX,FRL $                                                             
     LABEL    LBLFRLX $                                                              
     $ ALTER    47 $                                                                 
     INSERT EMA(4),2 $                                                               
     PARAM    //*ADD*/NOBGG /NOBM1 /0 $  RESET NOBGG.                                
     $ ALTER    58 $                                                                 
     INSERT GPSTGEN $                                                                
     $ REDEFINE BGG AND KGG.                                                         
     COND     LBL11A,NOBM1 $                                                         
     PARAMR   //*COMPLEX*// OMEGA2 /0.0/ CMPLX1 $                                    
1                                                                           /    95 SUN SOLARIS NASTRAN    / MAY 18, 95 / PAGE     6
                                                                                                                                    
0        N A S T R A N    E X E C U T I V E    C O N T R O L    D E C K    E C H O                                                  
0                                                                                                                                   
                                                                                                                                    
                                                                                                                                    
     PARAMR   //*SUB*/ MOMEGASQ / 0.0 / OMEGASQR $                                   
     PARAMR   //*COMPLEX*// MOMEGASQ / 0.0 / CMPLX2 $                                
     ADD      BGG,B1GG / BGG1 / (1.0,0.0) / CMPLX1 $                                 
     EQUIV    BGG1,BGG $                                                             
     ADD      KGG,M1GG / KGG1 / (1.0,0.0) / CMPLX2 $                                 
     EQUIV    KGG1,KGG $                                                             
     LABEL    LBL11A                                                                 
     $ ALTER    59,62 $  GP4 HAS BEEN MOVED-UP.                                      
     DELETE GP4,-1,GP4,2 $                                                           
     $ ALTER    87,87 $  DPD HAS BEEN MOVED-UP.                                      
     DELETE DPD $                                                                    
     $ ALTER    112 $  PARAM AND EQUIV LOGIC DEPENDING ON LGKAD FOR FREQ/TRAN.       
     INSERT GKAD,-3 $                                                                
     PARAM    //*AND*/KDEKA/NOUE/NOK2PP $                                            
     COND     LGKAD1,LGKAD $  BRANCH IN NOT FREQRESP.                                
     $ ALTER    113 $  SEE ALTER 112 COMMENT.                                        
     INSERT GKAD,-2 $                                                                
     JUMP     LGKAD2 $                                                               
     LABEL    LGKAD1 $                                                               
     EQUIV    M2PP,M2DD/NOA/B2PP,B2DD/NOA/K2PP,K2DD/NOA/MAA,MDD/MDEMA/               
              KAA,KDD/KDEKA $                                                        
     LABEL    LGKAD2 $                                                               
     $ ALTER    115,115 $  ADD PARAMETERS GKAD, W3 AND W4 TO GKAD.                   
     DELETE GKAD $                                                                   
     GKAD     USETD,GM,GO,KAA,BAA,MAA,K4AA,K2PP,M2PP,B2PP/KDD,BDD,MDD,GMD,           
              GOD,K2DD,M2DD,B2DD/C,Y,GKAD=TRANRESP/*DISP*/*DIRECT*/                  
              C,Y,G=0.0/C,Y,W3=0.0/C,Y,W4=0.0/NOK2PP/NOM2PP/NOB2PP/MPCF1/            
              SINGLE/OMIT/NOUE/NOK4GG/NOBGG/KDEK2/-1 $                               
     $ ALTER    116 $  SEE ALTER 112 COMMENT.                                        
     INSERT GKAD,1 $                                                                 
     COND     LGKAD3,LGKAD $  BRANCH IF NOT FREQRESP.                                
     $ ALTER    117 $  SEE ALTER 112 COMMENT.                                        
     INSERT GKAD,2 $                                                                 
     JUMP     LGKAD4 $                                                               
     LABEL    LGKAD3 $                                                               
     EQUIV    B2DD,BDD/NOGPDT/M2DD,MDD/NOSIMP/K2DD,KDD/KDEK2 $                       
     LABEL    LGKAD4 $                                                               
     $ ALTER    118,122 $                                                            
     DELETE FRRD,-2,VDR $                                                            
     $ NEW SOLUTION LOGIC                                                            
     $ GENERATE TIME-DEPENDENT LOADS IF TSTEP WAS REQUESTED IN CASE CONTROL.         
     $ USE FOL INSTEAD OF PPF TO GET OUTPUT FREQUENCY LIST.                          
     COND     LBLTRL1,NOTIME $                                                       
     $ LOOP THRU ALL SUBCASES FOR TIME-DEPENDENT LOADS.                              
     PARAM    //*MPY*/REPEATT /1 /-1 $                                               
     PARAM    //*ADD*/APPFLG /1 /0 $  INITIALIZE FOR SDR1.                           
     LABEL    TRLGLOOP $                                                             
1                                                                           /    95 SUN SOLARIS NASTRAN    / MAY 18, 95 / PAGE     7
                                                                                                                                    
0        N A S T R A N    E X E C U T I V E    C O N T R O L    D E C K    E C H O                                                  
0                                                                                                                                   
                                                                                                                                    
                                                                                                                                    
     CASE     CASECC,/CASEYY/*TRAN*/S,N,REPEATT/S,N,NOLOOP1 $                        
     PARAM    //*MPY*/NCOL /0 /1 $                                                   
     TRLG     CASEYY,USETD,DLT,SLT,BGPDT,SIL,CSTM,TRL,DIT,GMD,GOD,,EST,MGG,/         
              ,,PDT1,PD1,,TOL/ NOSET/NCOL $                                          
     SDR1     TRL,PDT1,,,,,,,,, / ,PDT, /APPFLG/*DYNAMICS* $                         
     SDR1     TRL,PD1 ,,,,,,,,, / ,PD , /APPFLG/*DYNAMICS* $                         
     PARAM    //*ADD*/APPFLG /APPFLG /1 $  APPFLG=APPFLG+1.                          
     COND     TRLGDONE,REPEATT $                                                     
     REPT     TRLGLOOP,100 $                                                         
     JUMP     ERROR3 $                                                               
     LABEL    TRLGDONE $                                                             
     FVRSTR2  TOL,,,,,,, / FRLZ,FOLZ,REORDER1,REORDER2,,,, /V,Y,NSEGS/               
              V,Y,CYCIO/S,Y,LMAX=-1/FKMAX/S,N,FLMAX/S,N,NTSTEPS/S,N,NORO1/           
              S,N,NORO2 $                                                            
     EQUIV    FRLZ,FRL // FOLZ,FOL $                                                 
     JUMP     LBLFRL2 $                                                              
     LABEL    LBLTRL1 $                                                              
     $ GENERATE FREQUENCY-DEPENDENT LOADS IF FREQUENCY WAS SELECTED IN CC.           
     FRLG     CASEXX,USETD,DLT,FRL,GMD,GOD,DIT, / PPF,PSF,PDF,FOL,PHFDUM /           
              *DIRECT*/FREQY/*FREQ* $                                                
     COND     LBLFRLX1,NOFRLX $  ZERO OUT LOAD COLUMNS IF FRLX WAS GENERATED.        
     MPYAD    PPF,PDZERO, / PPFX /0 $                                                
     EQUIV    PPFX,PPF $                                                             
     LABEL    LBLFRLX1 $                                                             
     $ FORM NEW LOADS.                                                               
     COND     LBLFRL1,NOBASEX $                                                      
     MPYAD    M2GG,BASEXG, / M2BASEXG /0 $                                           
     ADD      PPF,M2BASEXG / PPF1 /(1.0,0.0) /(-1.0,0.0) $                           
     EQUIV    PPF1,PPF $                                                             
     COND     LBLBASE1,NOSET $                                                       
     SSG2     USETD,GMD,YS,KFS,GOD,,PPF / ,PODUM1,PSF1,PDF1 $                        
     EQUIV    PSF1,PSF // PDF1,PDF $                                                 
     LABEL    LBLBASE1 $                                                             
     LABEL    LBLFRL1 $                                                              
     EQUIV    PPF,PDF/NOSET $                                                        
     $ LOADS ARE FREQUENCY-DEPENDENT                                                 
     $ PERFORM CYCLIC TRANSFORMATION ON LOADS IF CYCIO=+1.                           
     PARAML   PDF //*TRAILER*/1 /PDFCOLS $                                           
     $ CALCULATE THE NUMBER OF LOADS FOR CYCIO=-1.                                   
     PARAM    //*DIV*/NLOAD /PDFCOLS /FKMAX $ NLOAD = NF/FKMAX                       
     EQUIV    PDF,PXF/CYCIO $                                                        
     COND     LBLPDONE,CYCIO $                                                       
     $ CALCULATE THE NUMBER OF LOADS FOR CYCIO=1.                                    
     PARAM    //*DIV*/NLOAD /PDFCOLS /V,Y,NSEGS $ NLOAD = NF/NSEGS                   
     CYCT1    PDF / PXF,GCYCF1 /CTYPE /*FORE*/V,Y,NSEGS=-1 /V,Y,KMAX=-1/             
              NLOAD /S,N,NOGO $                                                      
     COND     ERRORC1,NOGO $                                                         
1                                                                           /    95 SUN SOLARIS NASTRAN    / MAY 18, 95 / PAGE     8
                                                                                                                                    
0        N A S T R A N    E X E C U T I V E    C O N T R O L    D E C K    E C H O                                                  
0                                                                                                                                   
                                                                                                                                    
                                                                                                                                    
     JUMP     LBLPDONE $                                                             
     LABEL    LBLFRL2 $                                                              
     $ LOADS ARE TIME-DEPENDENT                                                      
     PARAM    //*NOT*/NOTCYCIO /V,Y,CYCIO $                                          
     $ BRANCH DEPENDING ON VALUE OF CYCIO                                            
     COND     LBLTRL2,NOTCYCIO $                                                     
     $ CYCIO=-1                                                                      
     EQUIV    PD,PDTRZ1/NORO1 $                                                      
     COND     LBLRO1A,NORO1 $                                                        
     MPYAD    PD,REORDER1, / PDTRZ1 / 0 $                                            
     LABEL    LBLRO1A $                                                              
     CYCT1    PDTRZ1 / PXTRZ1,GCYCF2 /CTYPE/*FORE*/NTSTEPS/V,Y,LMAX/FKMAX/           
              S,N,NOGO $                                                             
     COND     ERRORC1,NOGO $                                                         
     EQUIV    PXTRZ1,PXFZ1/NORO2 $                                                   
     COND     LBLRO2A,NORO2 $                                                        
     MPYAD    PXTRZ1,REORDER2, / PXFZ1 /0 $                                          
     LABEL    LBLRO2A $                                                              
     EQUIV    PXFZ1,PXF1 $                                                           
     JUMP     LBLTRL3 $                                                              
     LABEL    LBLTRL2 $                                                              
     $ CYCIO = +1                                                                    
     MPYAD    PD,REORDER1, / PDTRZ2 / 0 $                                            
     CYCT1    PDTRZ2 /PXTRZ2,GCYCF3 /CTYPE/*FORE*/NTSTEPS/V,Y,LMAX/                  
              V,Y,NSEGS/S,N,NOGO $                                                   
     COND     ERRORC1,NOGO $                                                         
     EQUIV    PXTRZ2,PXTR2/NORO2 $                                                   
     COND     LBLRO2B,NORO2 $                                                        
     MPYAD    PXTRZ2,REORDER2, / PXTR2 /0 $                                          
     LABEL    LBLRO2B $                                                              
     CYCT1    PXTR2 / PXFZ2,GCYCF4 / CTYPE/*FORE*/V,Y,NSEGS/V,Y,KMAX/                
              FLMAX/S,N,NOGO $                                                       
     COND     ERRORC1,NOGO $                                                         
     EQUIV    PXFZ2,PXF1 $                                                           
     LABEL    LBLTRL3 $                                                              
     $ TIME-DEPENDENT LOADS ARE REAL. MAKE LOADS COMPLEX TO CORRESPOND               
     $ TO FREQUENCY DEPENDENT LOADS. ALSO SDR2 EXPECTS LOADS TO BE COMPLEX           
     $ IN FREQRESP TYPE PROBLEMS.                                                    
     COPY     PXF1 / PXF2  $  CONVERT REAL PXF1 TO COMPLEX PXF.                      
     ADD      PXF1,PXF2 / PXF / (0.5,1.0) / (0.5,-1.0) $                             
     $ DEFINE NLOAD FOR CYCT2.                                                       
     PARAM    //*ADD*/NLOAD /FLMAX /0 $  NLOAD = FLMAX                               
     LABEL    LBLPDONE $                                                             
     PARAM    //*ADD*/KINDEX /V,Y,KMIN=0 /0 $  INTITIALIZE KINDEX.                   
     $                                                                               
     $ INITIALIZE UXVF IF KMIN IS NOT ZERO.                                          
     $                                                                               
1                                                                           /    95 SUN SOLARIS NASTRAN    / MAY 18, 95 / PAGE     9
                                                                                                                                    
0        N A S T R A N    E X E C U T I V E    C O N T R O L    D E C K    E C H O                                                  
0                                                                                                                                   
                                                                                                                                    
                                                                                                                                    
     PARAM    //*ADD*/KMINL /V,Y,KMIN /-1 $                                          
     COND     NOKMINL,KMINL $                                                        
     PARAM    //*ADD*/KMINV /0 /0 $                                                  
     LABEL    KMINLOOP $                                                             
     CYCT2    CYCDD,,,PXF,, /,,PKFZ,, /*FORE*/V,Y,NSEGS/KMINV/CYCSEQ/NLOAD/          
              S,N,NOGO $                                                             
     COND     ERRORC1,NOGO $                                                         
     ADD      PKFZ, / UKVFZ / (0.0,0.0) $                                            
     PRTPARM  //0/*KINDEX* $                                                         
     CYCT2    CYCDD,,,UKVFZ,, /,,UXVF,, /*BACK*/V,Y,NSEGS/                           
              KMINV/CYCSEQ/NLOAD/S,N,NOGO $                                          
     PRTPARM  //0/*KINDEX* $                                                         
     COND     ERRORC1,NOGO $                                                         
     PARAM    //*ADD*/KMINV /KMINV /1 $                                              
     REPT     KMINLOOP,KMINL $                                                       
     LABEL    NOKMINL $                                                              
     LABEL    TOPCYC $  LOOP ON KINDEX                                               
     COND     NOKPRT,NOKPRT $                                                        
     PRTPARM  //0 /*KINDEX* $                                                        
     LABEL    NOKPRT $                                                               
     CYCT2    CYCDD,KDD,MDD,,, /KKKF,MKKF,,, /*FORE*/V,Y,NSEGS/KINDEX/               
              CYCSEQ=-1/NLOAD/S,N,NOGO $                                             
     COND     ERRORC1,NOGO $                                                         
     CYCT2    CYCDD,BDD,,PXF,, /BKKF,,PKF,, /*FORE*/V,Y,NSEGS/KINDEX/                
              CYCSEQ/NLOAD/S,N,NOGO $                                                
     COND     ERRORC1,NOGO $                                                         
     $ SOLUTION                                                                      
     FRRD2    KKKF,BKKF,MKKF,,PKF,FOL / UKVF /0.0/0.0/-1.0 $                         
     CYCT2    CYCDD,,,UKVF,, /,,UXVF,, /*BACK*/V,Y,NSEGS/KINDEX/CYCSEQ/              
              NLOAD/S,N,NOGO $                                                       
     COND     ERRORC1,NOGO $                                                         
     PARAM    //*ADD*/KINDEX/KINDEX/1 $  KINDEX = KINDEX + 1                         
     PARAM    //*SUB*/DONE / V,Y,KMAX / KINDEX $                                     
     COND     LCYC2,DONE $  IF KINDEX .GT. KMAX THEN EXIT                            
     REPT     TOPCYC,100 $                                                           
     JUMP     ERROR3 $                                                               
     LABEL    LCYC2 $                                                                
     EQUIV    UXVF,UDVF / CYCIO $                                                    
     COND     LCYC3,CYCIO $  IF CYCIO .GE. 0 THEN TRANSFORM TO PHYSICAL.             
     CYCT1    UXVF / UDVF,GCYCB1 / CTYPE/*BACK*/V,Y,NSEGS/V,Y,KMAX/NLOAD $           
     LABEL    LCYC3 $                                                                
     COND     LBLTRL4,NOTIME $                                                       
     EQUIV    PXF,PDF2 / CYCIO $                                                     
     COND     LCYC4,CYCIO $  IF CYCIO .GE. 0 THEN TRANSFORM TO PHYSICAL.             
     CYCT1    PXF / PDF2,GCYCB2 / CTYPE/*BACK*/V,Y,NSEGS/V,Y,KMAX/NLOAD $            
     LABEL    LCYC4 $                                                                
     $ IF LOADS WERE TIME-DEPENDENT THEN RECOVER PPF AND PSF FROM PXF.               
1                                                                           /    95 SUN SOLARIS NASTRAN    / MAY 18, 95 / PAGE    10
                                                                                                                                    
0        N A S T R A N    E X E C U T I V E    C O N T R O L    D E C K    E C H O                                                  
0                                                                                                                                   
                                                                                                                                    
                                                                                                                                    
     SDR1     USETD,,PDF2,,,GOD,GMD,,,, / PPFZ,, /1 /*DYNAMICS* $                    
     SSG2     USETD,GMD,YS,KFS,GOD,,PPFZ / ,PODUM,PSFZ,PLDUM $                       
     EQUIV    PPFZ,PPF // PSFZ,PSF $                                                 
     LABEL    LBLTRL4 $                                                              
     VDR      CASEXX,EQDYN,USETD,UDVF,FOL,XYCDB,/OUDVC1,/*FREQRESP*/                 
              *DIRECT*/S,N,NOSORT2/S,N,NOD/S,N,NOP/0 $                               
     $ ALTER    138,138 $  USE FOL INSTEAD OF PPF TO GET OUTPUT FREQUENCY LIST.      
     DELETE SDR2 $                                                                   
     SDR2     CASEXX,CSTM,MPT,DIT,EQDYN,SILD,,,BGPDP,FOL,QPC,UPVC,EST,XYCDB,         
              PPF,/OPPC1,OQPC1,OUPVC1,OESC1,OEFC1,PUPVC1,,/*FREQRESP*/               
              S,N,NOSORT2 $                                                          
     $ ALTER    160 $  ADD LABEL FOR ERROR3.                                         
     INSERT PLOT(2),4 $                                                              
     LABEL    ERROR3 $                                                               
     $ ALTER    163,166 $  REMOVE ERROR1 AND ERROR2.                                 
     DELETE PLOT(2),7,PLOT(2),10 $                                                   
     $ ALTER    168 $  FORCED VIBRATION ERRORS                                       
     INSERT END,-3 $                                                                 
     LABEL    ERRORC1 $  CHECK NSEGS, KMAX AND OTHER CYCLIC DATA.                    
     PRTPARM  //-5 /*CYCSTATICS* $                                                   
     LABEL    ERRORC2 $  COUPLED MASS NOT ALLOWED.                                   
     PRTPARM  //0 /C,Y,COUPMASS $                                                    
     JUMP     FINIS $                                                                
     LABEL    ERRORC3 $  SUPORT BULK DATA NOT ALLOWED.                               
     PRTPARM  //-6 /*CYCSTATICS* $                                                   
     LABEL    ERRORC4 $  EPOINT BULK DATA NOT ALLOWED.                               
     PRTPARM  //0 /*NOUE* $                                                          
     JUMP     FINIS $                                                                
     LABEL    ERRORC5 $  NEITHER FREQ OR TSTEP WERE IN BULK DATA DECK.               
     PRTPARM  //0 /*NOFRL* $                                                         
     PRTPARM  //0 /*NOTRL* $                                                         
     JUMP     FINIS $                                                                
     LABEL    ERRORC6 $  BOTH FREQ AND TSTEP WERE SELECTED IN CASE CONTROL.          
     PRTPARM  //0 /*NOFREQ* $                                                        
     PRTPARM  //0 /*NOTIME* $                                                        
     ENDALTER $                                                                      
0*** $   END READFILE                                                                
     $                                                                               
     CEND                                                                            


0*** USER INFORMATION MESSAGE, TURN DIAG 48 ON FOR NASTRAN RELEASE NEWS, DIAG DEFINITION, NEW DMAP
         MODULES AND NEW BULKDATA CARDS INFORMATION
1     ROTATING CYCLIC STRUCTURE (FREQ+BASE ACCN LOADS, HARM. I/O)           /    95 SUN SOLARIS NASTRAN    / MAY 18, 95 / PAGE    11
      NASTRAN TEST PROBLEM NO. T08-02-1A                                                                                            
0                                                                                                                                   
0                                        C A S E    C O N T R O L   D E C K   E C H O                                               
                 CARD                                                                                                               
                 COUNT                                                                                                              
                  1      TITLE    = ROTATING CYCLIC STRUCTURE (FREQ+BASE ACCN LOADS, HARM. I/O)          
                  2      SUBTITLE = NASTRAN TEST PROBLEM NO. T08-02-1A                                   
                  3      $                                                                               
                  4         SPC   = 30                                                                   
                  5         FREQ  = 1                                                                    
                  6      OUTPUT                                                                          
                  7         SET 1 = 8,16,18                                                              
                  8         SET 2 = 11                                                                   
                  9         OLOAD = 1                                                                    
                 10         DISP(SORT2,PHASE)   = 1                                                      
                 11         STRESS(SORT2,PHASE) = 2                                                      
                 12      SUBCASE  1                                                                      
                 13         LABEL = KINDEX 0                                                             
                 14         DLOAD = 1   $ FREQ DEPENDENT LOADS                                           
                 15      $                AXIAL BASE ACCN LOADS VIA PARAM BXTID,BXPTID                   
                 16       SUBCASE 2                                                                      
                 17         LABEL = KINDEX 1C                                                            
                 18      $                LATERAL BASE ACCN LOADS VIA PARAM BYTID                        
                 19       SUBCASE 3                                                                      
                 20         LABEL = KINDEX 1S                                                            
                 21      $                LATERAL BASE ACCN LOADS VIA PARAM BZTID                        
                 22       SUBCASE 4                                                                      
                 23         LABEL = KINDEX 2C                                                            
                 24         DLOAD = 1   $ FREQ DEPENDENT LOADS                                           
                 25       SUBCASE 5                                                                      
                 26         LABEL = KINDEX 2S                                                            
                 27      OUTPUT(XYPLOT)                                                                  
                 28         PLOTTER NASTPLT D,0                                                          
                 29         XPAPER = 8.0                                                                 
                 30         YPAPER = 10.5                                                                
                 31         XAXIS  = YES                                                                 
                 32         YAXIS  = YES                                                                 
                 33         XGRID LINES = YES                                                            
                 34         YGRID LINES = YES                                                            
                 35         CURVELINESYMBOL = 1                                                          
                 36         XTITLE =                           FREQUENCY (HERTZ)                         
                 37         YTITLE =            GRID POINT DISPLACEMENTS ( MAGNITUDE,INCH )              
                 38         YLOG   = YES                                                                 
                 39         TCURVE = 8(T3RM),18(T3RM)                                                    
                 40         XYPLOT,XYPRINT DISP RESPONSE 1 /8(T3RM),18(T3RM)                             
                 41         XYPLOT,XYPRINT DISP RESPONSE 2 /8(T3RM),18(T3RM)                             
                 42         XYPLOT,XYPRINT DISP RESPONSE 3 /8(T3RM),18(T3RM)                             
                 43         XYPLOT,XYPRINT DISP RESPONSE 4 /8(T3RM),18(T3RM)                             
                 44         YTITLE =            GRID POINT DISPLACEMENTS ( PHASE,DEGREE )                
                 45         YLOG   = NO                                                                  
                 46         TCURVE = 8(T3IP),18(T3IP)                                                    
                 47         XYPLOT,XYPRINT DISP RESPONSE 2 /8(T3IP),18(T3IP)                             
1     ROTATING CYCLIC STRUCTURE (FREQ+BASE ACCN LOADS, HARM. I/O)           /    95 SUN SOLARIS NASTRAN    / MAY 18, 95 / PAGE    12
      NASTRAN TEST PROBLEM NO. T08-02-1A                                                                                            
0                                                                                                                                   
0                                        C A S E    C O N T R O L   D E C K   E C H O                                               
                 CARD                                                                                                               
                 COUNT                                                                                                              
                 48         YTITLE =                   ELEMENT STRESSES ( MAGNITUDE,PSI )                
                 49         YLOG   = YES                                                                 
                 50         TCURVE = 11(3),11(5),11(7),11(10),11(12),11(14)                              
                 51         XYPLOT,XYPRINT STRESS RESPONSE 1 /11(3),11(5),11(7),                         
                 52                                           11(10),11(12),11(14)                       
                 53         XYPLOT,XYPRINT STRESS RESPONSE 2 /11(3),11(5),11(7),                         
                 54                                           11(10),11(12),11(14)                       
                 55         XYPLOT,XYPRINT STRESS RESPONSE 3 /11(3),11(5),11(7),                         
                 56                                           11(10),11(12),11(14)                       
                 57         XYPLOT,XYPRINT STRESS RESPONSE 4 /11(3),11(5),11(7),                         
                 58                                           11(10),11(12),11(14)                       
                 59      BEGIN BULK                                                                      


                        (NO. OF UNSORTED BULK DATA CARDS READ =    70, INCLUDING   0 COMMENT CARDS)
0*** USER INFORMATION MESSAGE 207, BULK DATA DECK IS NOT SORTED. NASTRAN WILL RE-ORDER THE INPUT DECK.
0*** USER INFORMATION MESSAGE 207A, SIX CHARACTERS OF NASTRAN BCD NAME IN THE THIRD FIELD WERE USED DURING RE-ORDERING DECK
1     ROTATING CYCLIC STRUCTURE (FREQ+BASE ACCN LOADS, HARM. I/O)           /    95 SUN SOLARIS NASTRAN    / MAY 18, 95 / PAGE    13
      NASTRAN TEST PROBLEM NO. T08-02-1A                                                                                            
0                                                                                                                                   
0                                                 S O R T E D   B U L K    D A T A    E C H O                                       
                     CARD                                                                                                           
                     COUNT        ---1--- +++2+++ ---3--- +++4+++ ---5--- +++6+++ ---7--- +++8+++ ---9--- +++10+++                  
                    1-        CORD2C  1               0.0     0.0     0.0     1.0     0.0     0.0     +COR12  
                    2-        +COR12  0.0     1.0     0.0                                                     
                    3-        CQUAD2  4       2       2       3       7       6                               
                    4-        CQUAD2  5       2       6       7       12      11                              
                    5-        CQUAD2  6       2       3       4       8       7                               
                    6-        CQUAD2  7       2       7       8       13      12                              
                    7-        CQUAD2  8       2       4       5       9       8                               
                    8-        CQUAD2  10      2       8       15      14      13                              
                    9-        CQUAD2  11      3       9       16      18      15                              
                   10-        CQUAD2  12      3       16      17      19      18                              
                   11-        CTRIA2  1       1       1       6       10                                      
                   12-        CTRIA2  2       1       1       2       6                                       
                   13-        CTRIA2  3       1       10      6       11                                      
                   14-        CTRIA2  9       1       8       9       15                                      
                   15-        CYJOIN  1               1       2       3       4       5                       
                   16-        CYJOIN  2               10      11      12      13      14                      
                   17-        DAREA   1       8       3       -1.0                                            
                   18-        DAREA   1       16      3       1.0                                             
                   19-        DAREA   1       18      3       1.0                                             
                   20-        FREQ    1       1700.0  1750.0  1777.6  1795.7  1813.8541832.0  1850.1  +FR1    
                   21-        +FR1    1880.0  1920.0                                                          
                   22-        GRDSET          1                               1                               
                   23-        GRID    1               2.0     30.0    0.0                                     
                   24-        GRID    2               3.1     30.0    0.0                                     
                   25-        GRID    3               4.3     30.0    0.0                                     
                   26-        GRID    4               5.2     30.0    0.0                                     
                   27-        GRID    5               7.1     30.0    0.0                                     
                   28-        GRID    6               3.1     45.0    0.0                                     
                   29-        GRID    7               4.3     45.0    0.0                                     
                   30-        GRID    8               5.2     45.0    0.0                                     
                   31-        GRID    9               7.1     40.0    0.0                                     
                   32-        GRID    10              2.0     60.0    0.0                                     
                   33-        GRID    11              3.1     60.0    0.0                                     
                   34-        GRID    12              4.3     60.0    0.0                                     
                   35-        GRID    13              5.2     60.0    0.0                                     
                   36-        GRID    14              7.1     60.0    0.0                                     
                   37-        GRID    15              7.1     50.0    0.0                                     
                   38-        GRID    16              8.5     40.0    -.25                                    
                   39-        GRID    17              9.7     40.0    -.50                                    
                   40-        GRID    18              8.5     50.0    0.25                                    
                   41-        GRID    19              9.7     50.0    0.50                                    
                   42-        MAT1    1       30.0+6          .3      7.4-4                                   
                   43-        PARAM   BXPTID  9002                                                            
                   44-        PARAM   BXTID   9001                                                            
                   45-        PARAM   BYTID   9003                                                            
                   46-        PARAM   BZTID   9004                                                            
                   47-        PARAM   CYCIO   -1                                                              
1     ROTATING CYCLIC STRUCTURE (FREQ+BASE ACCN LOADS, HARM. I/O)           /    95 SUN SOLARIS NASTRAN    / MAY 18, 95 / PAGE    14
      NASTRAN TEST PROBLEM NO. T08-02-1A                                                                                            

                                                                                                                                    

                                                  S O R T E D   B U L K    D A T A    E C H O                                       
                     CARD                                                                                                           
                     COUNT        ---1--- +++2+++ ---3--- +++4+++ ---5--- +++6+++ ---7--- +++8+++ ---9--- +++10+++                  
                   48-        PARAM   G       .02                                                             
                   49-        PARAM   GKAD    FREQRESP                                                        
                   50-        PARAM   KMAX    2                                                               
                   51-        PARAM   KMIN    0                                                               
                   52-        PARAM   LGKAD   1                                                               
                   53-        PARAM   NSEGS   12                                                              
                   54-        PARAM   RPS     600.0                                                           
                   55-        PQUAD2  2       1       .25                                                     
                   56-        PQUAD2  3       1       .125                                                    
                   57-        PTRIA2  1       1       .25                                                     
                   58-        RLOAD1  1       1                       100                                     
                   59-        SPC1    30      6       1       THRU    19                                      
                   60-        SPC1    30      123456  1       10                                              
                   61-        TABLED1 100                                                             +TBD1   
                   62-        +TBD1   0.0     1.0     1000.0  1.0     ENDT                                    
                   63-        TABLED1 9001                                                            +TAB11  
                   64-        +TAB11  1000.   0.0     2000.0  1000.0  ENDT                                    
                   65-        TABLED1 9002                                                            +TAB21  
                   66-        +TAB21  1000.   -180.   2000.0  0.0     ENDT                                    
                   67-        TABLED1 9003                                                            +TAB31  
                   68-        +TAB31  1000.   1000.0  2000.0  1000.0  ENDT                                    
                   69-        TABLED1 9004                                                            +TAB41  
                   70-        +TAB41  1000.   500.0   2000.0  500.0   ENDT                                    
                              ENDDATA
1     ROTATING CYCLIC STRUCTURE (FREQ+BASE ACCN LOADS, HARM. I/O)           /    95 SUN SOLARIS NASTRAN    / MAY 18, 95 / PAGE    15
      NASTRAN TEST PROBLEM NO. T08-02-1A                                                                                            
0                                                                                                                                   
0         COSMIC / NASTRAN DMAP COMPILER - SOURCE LISTING                                                                           
                                                                                                                                    
                                                                                                                                    
0  OPTIONS IN EFFECT GO      ERR=2   LIST    NODECK  NOREF   NOOSCAR 
   -----------------


       1  BEGIN    DISP 08 - DIRECT FREQUENCY/RANDOM RESPONSE ANALYSIS-APR. 1995 $

       2  PRECHK   ALL $                                                          

       3  FILE     KGGX=TAPE/KGG=TAPE/GOD=SAVE/GMD=SAVE/MDD=SAVE/BDD=SAVE $       

       3  FILE     UXVF=APPEND/PDT=APPEND/PD=APPEND $                             

       3  COND     ERRORC1,NSEGS $  IF USER HAS NOT SPECIFIED NSEGS.              

       3  COND     ERRORC1,KMAX  $  IF USER HAS NOT SPECIFIED KMAX.               

       3  PARAM    //*EQ*/CYCIOERR /V,Y,CYCIO=0 /0 $                              

       3  COND     ERRORC1,CYCIOERR  $  IF USER HAS NOT SPECIFIED CYCIO.          

       3  PARAM    //*DIV*/NSEG2 /V,Y,NSEGS /2 $  NSEG2 = NSEGS/2                 

       3  PARAM    //*SUB*/KMAXERR /NSEG2 /V,Y,KMAX $                             

       3  COND     ERRORC1,KMAXERR $  IF KMAX .GT. NSEGS/2                        

       3  PARAM    //*NOP*/V,Y,NOKPRT=+1 /V,Y,LGKAD=-1 $                          

       3  PARAMR   //*MPY*/OMEGA /V,Y,RPS=0.0 /6.283185 $                         

       3  PARAMR   //*MPY*/OMEGA2 /2.0 /OMEGA $                                   

       3  PARAMR   //*MPY*/OMEGASQR /OMEGA /OMEGA $                               

       3  PARAMR   //*EQ*//V,Y,RPS /0.0 ////NORPS $                               

       3  PARAM    //*NOT*/NOLUMP /V,Y,COUPMASS=-1 $                              

       3  COND     ERRORC2,NOLUMP $                                               

       4  PARAM    //*MPY*/CARDNO/0/0 $                                           

       5  GP1      GEOM1,GEOM2,/GPL,EQEXIN,GPDT,CSTM,BGPDT,SIL/S,N,LUSET/         
                   S,N,NOGPDT/ALWAYS=-1 $                                         

       6  ANISOP   GEOM1,EPT,BGPDT,EQEXIN,MPT/MPTA/S,N,ISOP $                     
1     ROTATING CYCLIC STRUCTURE (FREQ+BASE ACCN LOADS, HARM. I/O)           /    95 SUN SOLARIS NASTRAN    / MAY 18, 95 / PAGE    16
      NASTRAN TEST PROBLEM NO. T08-02-1A                                                                                            

                                                                                                                                    

          COSMIC / NASTRAN DMAP COMPILER - SOURCE LISTING                                                                           
                                                                                                                                    
                                                                                                                                    

       7  EQUIV    MPTA,MPT/ISOP $                                                

       8  PLTTRAN  BGPDT,SIL/BGPDP,SIP/LUSET/S,N,LUSEP $                          

       9  PURGE    USET,GM,GO,KAA,BAA,MAA,K4AA,KFS,PSF,QPC,EST,ECT,PLTSETX,PLTPAR,
                   GPSETS,ELSETS/NOGPDT $                                         

      10  COND     LBL5,NOGPDT $                                                  

      11  GP2      GEOM2,EQEXIN/ECT $                                             

      12  PARAML   PCDB//*PRES*////JUMPPLOT $                                     

      13  PURGE    PLTSETX,PLTPAR,GPSETS,ELSETS/JUMPPLOT $                        

      14  COND     P1,JUMPPLOT $                                                  

      15  PLTSET   PCDB,EQEXIN,ECT,EPT/PLTSETX,PLTPAR,GPSETS,ELSETS/S,N,NSIL/     
                   S,N,JUMPPLOT $                                                 

      16  PRTMSG   PLTSETX// $                                                    

      17  PARAM    //*MPY*/PLTFLG/1/1 $                                           

      18  PARAM    //*MPY*/PFILE/0/0 $                                            

      19  COND     P1,JUMPPLOT $                                                  

      20  PLOT     PLTPAR,GPSETS,ELSETS,CASECC,BGPDT,EQEXIN,SIL,,ECT,,,,/PLOTX1/  
                   NSIL/LUSET/S,N,JUMPPLOT/S,N,PLTFLG/S,N,PFILE $                 

      21  PRTMSG   PLOTX1//$                                                      

      22  LABEL    P1 $                                                           

      23  GP3      GEOM3,EQEXIN,GEOM2 / SLT,GPTT / NOGRAV $                       

      24  TA1      ECT,EPT,BGPDT,SIL,GPTT,CSTM,MPT,EQEXIN/EST,GEI,GPECT,,,MPTX,   
                   PCOMPS,EPTX/LUSET/S,N,NOSIMP/1/S,N,NOGENL/GENEL/S,N,COMPS $    

      25  EQUIV    MPTX,MPT/COMPS/EPTX,EPT/COMPS $                                

      26  PURGE    K4GG,MGG,BGG,K4NN,K4FF,K4AA,MNN,MFF,MAA,BNN,BFF,BAA,           
                   KGGX/NOSIMP $                                                  

      26  PARAM    //*MPY*/NSKIP /0/0 $                                           
1     ROTATING CYCLIC STRUCTURE (FREQ+BASE ACCN LOADS, HARM. I/O)           /    95 SUN SOLARIS NASTRAN    / MAY 18, 95 / PAGE    17
      NASTRAN TEST PROBLEM NO. T08-02-1A                                                                                            

                                                                                                                                    

          COSMIC / NASTRAN DMAP COMPILER - SOURCE LISTING                                                                           
                                                                                                                                    
                                                                                                                                    

      26  GP4      CASECC,GEOM4,EQEXIN,GPDT,BGPDT,CSTM,/RG,YS,USET,ASET,/LUSET/   
                   S,N,MPCF1/S,N,MPCF2/S,N,SINGLE/S,N,OMIT/S,N,REACT/S,N,NSKIP/   
                   S,N,REPEAT/S,N,NOSET/S,N,NOL/S,N,NOA/C,Y,ASETOUT/C,Y,AUTOSPC $ 

      26  PURGE    GM,GMD/MPCF1/GO,GOD/OMIT/KFS,PSF,QPC/SINGLE $                  

      26  PARAM    //*NOT*/REACDATA /REACT $                                      

      26  COND     ERRORC3,REACDATA $                                             

      26  DPD      DYNAMICS,GPL,SIL,USET / GPLD,SILD,USETD,TFPOOL,DLT,PSDL,FRL,,  
                   TRL,,EQDYN / LUSET/S,N,LUSETD/NOTFL/S,N,NODLT/S,N,NOPSDL/      
                   S,N,NOFRL/NONLFT/S,N,NOTRL/NOEED//S,N,NOUE $                   

      26  PARAM    //*AND*/FTERR /NOFRL /NOTRL $                                  

      26  COND     ERRORC5,FTERR $  NO FREQ OR TSTEP BULK DATA.                   

      26  PARAML   CASECC //*TABLE1*/1/14//FREQSET $                              

      26  PARAML   CASECC //*TABLE1*/1/38//TIMESET $                              

      26  PARAM    //*MPY*/FREQTIME /FREQSET /TIMESET $                           

      26  PARAM    //*NOT*/FTERR1 /FREQTIME $                                     

      26  PARAM    //*LE*/NOFREQ /FREQSET /0 $                                    

      26  PARAM    //*LE*/NOTIME /TIMESET /0 $                                    

      26  COND     ERRORC6,FTERR1 $  BOTH FREQ AND TSTEP IN CASE CONTROL DECK.    

      26  PARAM    //*NOT*/EXTRAPTS /NOUE $                                       

      26  COND     ERRORC4,EXTRAPTS $                                             

      26  GPCYC    GEOM4,EQDYN,USETD /CYCDD /CTYPE=ROT /S,N,NOGO $                

      26  COND     ERRORC1,NOGO $                                                 

      27  COND     LBL1,NOSIMP $                                                  

      28  PARAM    //*ADD*/NOKGGX/1/0 $                                           

      29  PARAM    //*ADD*/NOMGG/1/0 $                                            
1     ROTATING CYCLIC STRUCTURE (FREQ+BASE ACCN LOADS, HARM. I/O)           /    95 SUN SOLARIS NASTRAN    / MAY 18, 95 / PAGE    18
      NASTRAN TEST PROBLEM NO. T08-02-1A                                                                                            

                                                                                                                                    

          COSMIC / NASTRAN DMAP COMPILER - SOURCE LISTING                                                                           
                                                                                                                                    
                                                                                                                                    

      30  PARAM    //*ADD*/NOBGG=-1/1/0 $                                         

      31  PARAM    //*ADD*/NOK4GG/1/0 $                                           

      32  EMG      EST,CSTM,MPT,DIT,GEOM2,/KELM,KDICT,MELM,MDICT,BELM,BDICT,/     
                   S,N,NOKGGX/S,N,NOMGG/S,N,NOBGG/S,N,NOK4GG//C,Y,COUPMASS/       
                   C,Y,CPBAR/C,Y,CPROD/C,Y,CPQUAD1/C,Y,CPQUAD2/C,Y,CPTRIA1/       
                   C,Y,CPTRIA2/C,Y,CPTUBE/C,Y,CPQDPLT/C,Y,CPTRPLT/C,Y,CPTRBSC/    
                   C,Y,VOLUME/C,Y,SURFACE $                                       

      33  PURGE    KGGX/NOKGGX/MGG/NOMGG $                                        

      34  COND     LBLKGGX,NOKGGX $                                               

      35  EMA      GPECT,KDICT,KELM/KGGX $                                        

      36  LABEL    LBLKGGX $                                                      

      36  PARAM    //*OR*/NOBM1 /NOMGG /NORPS $                                   

      36  PURGE    B1GG,M1GG /NOBM1 $                                             

      36  PURGE    M2GG,M2BASEXG /NOMGG $                                         

      37  COND     LBLMGG,NOMGG $                                                 

      38  EMA      GPECT,MDICT,MELM/MGG/-1/C,Y,WTMASS=1.0 $                       

      39  PURGE    MDICT,MELM/ALWAYS $                                            

      39  FVRSTR1  CASECC,BGPDT,CSTM,DIT,FRL,MGG,, / FRLX,B1GG,M1GG,M2GG,BASEXG,  
                   PDZERO,, /NOMGG/V,Y,CYCIO/V,Y,NSEGS/V,Y,KMAX/S,N,FKMAX/        
                   V,Y,BXTID=-1/V,Y,BXPTID=-1/V,Y,BYTID=-1/V,Y,BYPTID=-1/         
                   V,Y,BZTID=-1/V,Y,BZPTID=-1/S,N,NOBASEX/NOFREQ/OMEGA  $         

      39  PARAML   FRLX //*PRES*////NOFRLX $                                      

      39  COND     LBLFRLX,NOFRLX $                                               

      39  EQUIV    FRLX,FRL $                                                     

      39  LABEL    LBLFRLX $                                                      

      40  LABEL    LBLMGG $                                                       

      41  COND     LBLBGG,NOBGG $                                                 
1     ROTATING CYCLIC STRUCTURE (FREQ+BASE ACCN LOADS, HARM. I/O)           /    95 SUN SOLARIS NASTRAN    / MAY 18, 95 / PAGE    19
      NASTRAN TEST PROBLEM NO. T08-02-1A                                                                                            

                                                                                                                                    

          COSMIC / NASTRAN DMAP COMPILER - SOURCE LISTING                                                                           
                                                                                                                                    
                                                                                                                                    

      42  EMA      GPECT,BDICT,BELM/BGG $                                         

      43  PURGE    BDICT,BELM/ALWAYS $                                            

      44  LABEL    LBLBGG $                                                       

      45  COND     LBLK4GG,NOK4GG $                                               

      46  EMA      GPECT,KDICT,KELM/K4GG/NOK4GG $                                 

      47  LABEL    LBLK4GG $                                                      

      48  PURGE    KDICT,KELM/ALWAYS $                                            

      48  PARAM    //*ADD*/NOBGG /NOBM1 /0 $  RESET NOBGG.                        

      49  PURGE    MNN,MFF,MAA/NOMGG $                                            

      50  PURGE    BNN,BFF,BAA/NOBGG $                                            

      51  COND     LBL1,GRDPNT $                                                  

      52  COND     ERROR4,NOMGG $                                                 

      53  GPWG     BGPDP,CSTM,EQEXIN,MGG/OGPWG/V,Y,GRDPNT=-1/C,Y,WTMASS $         

      54  OFP      OGPWG,,,,,//S,N,CARDNO $                                       

      55  LABEL    LBL1 $                                                         

      56  EQUIV    KGGX,KGG/NOGENL $                                              

      57  COND     LBL11,NOGENL $                                                 

      58  SMA3     GEI,KGGX/KGG/LUSET/NOGENL/NOSIMP $                             

      59  LABEL    LBL11 $                                                        

      60  GPSTGEN  KGG,SIL/GPST $                                                 

      60  COND     LBL11A,NOBM1 $                                                 

      60  PARAMR   //*COMPLEX*// OMEGA2 /0.0/ CMPLX1 $                            

      60  PARAMR   //*SUB*/ MOMEGASQ / 0.0 / OMEGASQR $                           
1     ROTATING CYCLIC STRUCTURE (FREQ+BASE ACCN LOADS, HARM. I/O)           /    95 SUN SOLARIS NASTRAN    / MAY 18, 95 / PAGE    20
      NASTRAN TEST PROBLEM NO. T08-02-1A                                                                                            

                                                                                                                                    

          COSMIC / NASTRAN DMAP COMPILER - SOURCE LISTING                                                                           
                                                                                                                                    
                                                                                                                                    

      60  PARAMR   //*COMPLEX*// MOMEGASQ / 0.0 / CMPLX2 $                        

      60  ADD      BGG,B1GG / BGG1 / (1.0,0.0) / CMPLX1 $                         

      60  EQUIV    BGG1,BGG $                                                     

      60  ADD      KGG,M1GG / KGG1 / (1.0,0.0) / CMPLX2 $                         

      60  EQUIV    KGG1,KGG $                                                     

      60  LABEL    LBL11A                                                         

      65  EQUIV    KGG,KNN/MPCF1/MGG,MNN/MPCF1/ BGG,BNN/MPCF1/K4GG,K4NN/MPCF1 $   

      66  COND     LBL2,MPCF1 $                                                   

      67  MCE1     USET,RG/GM $                                                   

      68  MCE2     USET,GM,KGG,MGG,BGG,K4GG/KNN,MNN,BNN,K4NN $                    

      69  LABEL    LBL2 $                                                         

      70  EQUIV    KNN,KFF/SINGLE/MNN,MFF/SINGLE/BNN,BFF/SINGLE/K4NN,K4FF/SINGLE $

      71  COND     LBL3,SINGLE $                                                  

      72  SCE1     USET,KNN,MNN,BNN,K4NN/KFF,KFS,,MFF,BFF,K4FF $                  

      73  LABEL    LBL3 $                                                         

      74  EQUIV    KFF,KAA/OMIT $                                                 

      75  EQUIV    MFF,MAA/OMIT $                                                 

      76  EQUIV    BFF,BAA/OMIT $                                                 

      77  EQUIV    K4FF,K4AA/OMIT $                                               

      78  COND     LBL5,OMIT $                                                    

      79  SMP1     USET,KFF,,,/GO,KAA,KOO,LOO,,,,, $                              

      80  COND     LBLM,NOMGG $                                                   

      81  SMP2     USET,GO,MFF/MAA $                                              
1     ROTATING CYCLIC STRUCTURE (FREQ+BASE ACCN LOADS, HARM. I/O)           /    95 SUN SOLARIS NASTRAN    / MAY 18, 95 / PAGE    21
      NASTRAN TEST PROBLEM NO. T08-02-1A                                                                                            

                                                                                                                                    

          COSMIC / NASTRAN DMAP COMPILER - SOURCE LISTING                                                                           
                                                                                                                                    
                                                                                                                                    

      82  LABEL    LBLM $                                                         

      83  COND     LBLB,NOBGG $                                                   

      84  SMP2     USET,GO,BFF/BAA $                                              

      85  LABEL    LBLB $                                                         

      86  COND     LBL5,NOK4GG $                                                  

      87  SMP2     USET,GO,K4FF/K4AA $                                            

      88  LABEL    LBL5 $                                                         

      90  EQUIV    GO,GOD/NOUE/GM,GMD/NOUE $                                      

      91  PARAM    //*ADD*/NEVER/1/0 $                                            

      92  PARAM    //*MPY*/REPEATF/-1/1 $                                         

      93  BMG      MATPOOL,BGPDT,EQEXIN,CSTM/BDPOOL/S,N,NOKBFL/S,N,NOABFL/        
                   S,N,MFACT $                                                    

      94  PARAM    //*AND*/NOFL/NOABFL/NOKBFL $                                   

      95  PURGE    KBFL/NOKBFL/ ABFL/NOABFL $                                     

      96  COND     LBL13,NOFL $                                                   

      97  MTRXIN,  ,BDPOOL,EQDYN,,/ABFL,KBFL,/LUSETD/S,N,NOABFL/S,N,NOKBFL/       
                   0 $                                                            

      98  LABEL    LBL13 $                                                        

      99  PURGE    OUDVC1,OUDVC2,XYPLTFA,OPPC1,OQPC1,OUPVC1,OESC1,OEFC1,OPPC2,    
                   OQPC2,OUPVC2,OESC2,OEFC2,XYPLTF,PSDF,AUTO,XYPLTR,              
                   K2PP,M2PP,B2PP,K2DD,M2DD,B2DD/NEVER $                          

     100  CASE     CASECC,PSDL/CASEXX/*FREQ*/S,N,REPEATF/S,N,NOLOOP $             

     101  MTRXIN   CASEXX,MATPOOL,EQDYN,,TFPOOL/K2DPP,M2DPP,B2PP/LUSETD/S,N,      
                   NOK2DPP/S,N,NOM2DPP/S,N,NOB2PP $                               

     102  PARAM    //*AND*/NOM2PP/NOABFL/NOM2DPP $                                

     103  PARAM    //*AND*/NOK2PP/NOFL  /NOK2DPP $                                
1     ROTATING CYCLIC STRUCTURE (FREQ+BASE ACCN LOADS, HARM. I/O)           /    95 SUN SOLARIS NASTRAN    / MAY 18, 95 / PAGE    22
      NASTRAN TEST PROBLEM NO. T08-02-1A                                                                                            

                                                                                                                                    

          COSMIC / NASTRAN DMAP COMPILER - SOURCE LISTING                                                                           
                                                                                                                                    
                                                                                                                                    

     104  EQUIV    K2DPP,K2PP/NOFL/M2DPP,M2PP/NOABFL $                            

     105  COND     LBLFL2,NOFL $                                                  

     106  ADD5     ABFL,KBFL,K2DPP,,/K2PP/(-1.0,0.0) $                            

     107  COND     LBLFL2,NOABFL $                                                

     108  TRNSP    ABFL/ABFLT $                                                   

     109  ADD      ABFLT,M2DPP/M2PP/MFACT/(1.0,0.0) $                             

     110  LABEL    LBLFL2 $                                                       

     111  PARAM    //*AND*/BDEBA/NOUE/NOB2PP $                                    

     112  PARAM    //*AND*/KDEK2/NOGENL/NOSIMP $                                  

     113  PARAM    //*AND*/MDEMA/NOUE/NOM2PP $                                    

     114  PURGE    K2DD/NOK2PP/M2DD/NOM2PP/B2DD/NOB2PP $                          

     114  PARAM    //*AND*/KDEKA/NOUE/NOK2PP $                                    

     114  COND     LGKAD1,LGKAD $  BRANCH IN NOT FREQRESP.                        

     115  EQUIV    M2PP,M2DD/NOA/B2PP,B2DD/NOA/K2PP,K2DD/NOA/                     
                   MAA,MDD/MDEMA/BAA,BDD/BDEBA $                                  

     115  JUMP     LGKAD2 $                                                       

     115  LABEL    LGKAD1 $                                                       

     115  EQUIV    M2PP,M2DD/NOA/B2PP,B2DD/NOA/K2PP,K2DD/NOA/MAA,MDD/MDEMA/       
                   KAA,KDD/KDEKA $                                                

     115  LABEL    LGKAD2 $                                                       

     116  COND     LBL18,NOGPDT $                                                 

     117  GKAD     USETD,GM,GO,KAA,BAA,MAA,K4AA,K2PP,M2PP,B2PP/KDD,BDD,MDD,GMD,   
                   GOD,K2DD,M2DD,B2DD/C,Y,GKAD=TRANRESP/*DISP*/*DIRECT*/          
                   C,Y,G=0.0/C,Y,W3=0.0/C,Y,W4=0.0/NOK2PP/NOM2PP/NOB2PP/MPCF1/    
                   SINGLE/OMIT/NOUE/NOK4GG/NOBGG/KDEK2/-1 $                       

     118  LABEL    LBL18 $                                                        
1     ROTATING CYCLIC STRUCTURE (FREQ+BASE ACCN LOADS, HARM. I/O)           /    95 SUN SOLARIS NASTRAN    / MAY 18, 95 / PAGE    23
      NASTRAN TEST PROBLEM NO. T08-02-1A                                                                                            

                                                                                                                                    

          COSMIC / NASTRAN DMAP COMPILER - SOURCE LISTING                                                                           
                                                                                                                                    
                                                                                                                                    

     118  COND     LGKAD3,LGKAD $  BRANCH IF NOT FREQRESP.                        

     119  EQUIV    B2DD,BDD/NOBGG/ M2DD,MDD/NOSIMP/ K2DD,KDD/KDEK2 $              

     119  JUMP     LGKAD4 $                                                       

     119  LABEL    LGKAD3 $                                                       

     119  EQUIV    B2DD,BDD/NOGPDT/M2DD,MDD/NOSIMP/K2DD,KDD/KDEK2 $               

     119  LABEL    LGKAD4 $                                                       

     124  COND     LBLTRL1,NOTIME $                                               

     124  PARAM    //*MPY*/REPEATT /1 /-1 $                                       

     124  PARAM    //*ADD*/APPFLG /1 /0 $  INITIALIZE FOR SDR1.                   

     124  LABEL    TRLGLOOP $                                                     

     124  CASE     CASECC,/CASEYY/*TRAN*/S,N,REPEATT/S,N,NOLOOP1 $                

     124  PARAM    //*MPY*/NCOL /0 /1 $                                           

     124  TRLG     CASEYY,USETD,DLT,SLT,BGPDT,SIL,CSTM,TRL,DIT,GMD,GOD,,EST,MGG,/ 
[...]
      NASTRAN TEST PROBLEM NO. T08-02-1A                                                                                            
0     KINDEX 2C                                                                                               SUBCASE 4             



                                            X Y - O U T P U T   S U M M A R Y


     SUBCASE         4
      RESPONSE
      ELEMENT-STRESS  CURVE       11( 7)
 
      XY-PAIRS BETWEEN XMIN AND XMAX WILL BE PRINTED
      XY-PAIRS WITHIN FRAME LIMITS WILL BE PLOTTED
      PLOTTER SPECIFIED IS NASTPLT DRUM  PLOTTER WITH    TYPING CAPABILITY.
      CSCALE =  1.00
      PAPER SIZE  8.00 X 10.50 INCHES SPECIFIED.
      PENSIZE =  1


     THIS IS CURVE   3 OF WHOLE FRAME    9


     CURVE  TITLE = 11(3),11(5),11(7),11(10),11(12),11(14)                                                                         
      X-AXIS TITLE =                           FREQUENCY (HERTZ)                                                                    
      Y-AXIS TITLE =                   ELEMENT STRESSES ( MAGNITUDE,PSI )                                                           





     THE FOLLOWING INFORMATION IS FOR THE ABOVE DEFINED CURVE ONLY.



      WITHIN THE FRAME X-LIMITS       (X =  1.100000E+03 TO  X =  2.520000E+03)


                              THE SMALLEST Y-VALUE =  0.000000E+00 AT X =   1.100000E+03


                              THE LARGEST  Y-VALUE =  9.126247E+01 AT X =   1.813854E+03




     WITHIN THE X-LIMITS OF ALL DATA (X =  1.100000E+03 TO  X =  2.520000E+03)


                              THE SMALLEST Y-VALUE =  0.000000E+00 AT X =   1.100000E+03


                              THE LARGEST  Y-VALUE =  9.126247E+01 AT X =   1.813854E+03




                                             E N D   O F   S U M M A R Y


                         P R I N T E D   D A T A   F O R   T H I S   C U R V E   F O L L O W S
1     ROTATING CYCLIC STRUCTURE (FREQ+BASE ACCN LOADS, HARM. I/O)           /    95 SUN SOLARIS NASTRAN    / MAY 18, 95 / PAGE   182
      NASTRAN TEST PROBLEM NO. T08-02-1A                                                                                            
0     KINDEX 2C                                                                                               SUBCASE 4             


     ELEMENT-STRESS  CURVE   ID =       11     COMPONENT =  7     WHOLE FRAME


                           PRINT NUMBER          X-VALUE              Y-VALUE              CARD NUMBER
                                  1             1.100000E+03         0.000000E+00
                                  2             1.150000E+03         0.000000E+00
                                  3             1.177600E+03         0.000000E+00
                                  4             1.195700E+03         0.000000E+00
                                  5             1.213854E+03         0.000000E+00
                                  6             1.232000E+03         0.000000E+00
                                  7             1.250100E+03         0.000000E+00
                                  8             1.280000E+03         0.000000E+00
                                  9             1.320000E+03         0.000000E+00
                                 10             1.700000E+03         1.743522E+01
                                 11             1.750000E+03         2.959514E+01
                                 12             1.777600E+03         4.861847E+01
                                 13             1.795700E+03         7.536248E+01
                                 14             1.813854E+03         9.126247E+01
                                 15             1.832000E+03         6.267014E+01
                                 16             1.850100E+03         4.129694E+01
                                 17             1.880000E+03         2.546400E+01
                                 18             1.920000E+03         1.690720E+01
                                 19             2.300000E+03         0.000000E+00
                                 20             2.350000E+03         0.000000E+00
                                 21             2.377600E+03         0.000000E+00
                                 22             2.395700E+03         0.000000E+00
                                 23             2.413854E+03         0.000000E+00
                                 24             2.432000E+03         0.000000E+00
                                 25             2.450100E+03         0.000000E+00
                                 26             2.480000E+03         0.000000E+00
                                 27             2.520000E+03         0.000000E+00
1     ROTATING CYCLIC STRUCTURE (FREQ+BASE ACCN LOADS, HARM. I/O)           /    95 SUN SOLARIS NASTRAN    / MAY 18, 95 / PAGE   183
      NASTRAN TEST PROBLEM NO. T08-02-1A                                                                                            
0     KINDEX 2C                                                                                               SUBCASE 4             



                                            X Y - O U T P U T   S U M M A R Y


     SUBCASE         4
      RESPONSE
      ELEMENT-STRESS  CURVE       11(10)
 
      XY-PAIRS BETWEEN XMIN AND XMAX WILL BE PRINTED
      XY-PAIRS WITHIN FRAME LIMITS WILL BE PLOTTED
      PLOTTER SPECIFIED IS NASTPLT DRUM  PLOTTER WITH    TYPING CAPABILITY.
      CSCALE =  1.00
      PAPER SIZE  8.00 X 10.50 INCHES SPECIFIED.
      PENSIZE =  1


     THIS IS CURVE   4 OF WHOLE FRAME    9


     CURVE  TITLE = 11(3),11(5),11(7),11(10),11(12),11(14)                                                                         
      X-AXIS TITLE =                           FREQUENCY (HERTZ)                                                                    
      Y-AXIS TITLE =                   ELEMENT STRESSES ( MAGNITUDE,PSI )                                                           





     THE FOLLOWING INFORMATION IS FOR THE ABOVE DEFINED CURVE ONLY.



      WITHIN THE FRAME X-LIMITS       (X =  1.100000E+03 TO  X =  2.520000E+03)


                              THE SMALLEST Y-VALUE =  0.000000E+00 AT X =   1.100000E+03


                              THE LARGEST  Y-VALUE =  1.433033E+03 AT X =   1.813854E+03




     WITHIN THE X-LIMITS OF ALL DATA (X =  1.100000E+03 TO  X =  2.520000E+03)


                              THE SMALLEST Y-VALUE =  0.000000E+00 AT X =   1.100000E+03


                              THE LARGEST  Y-VALUE =  1.433033E+03 AT X =   1.813854E+03




                                             E N D   O F   S U M M A R Y


                         P R I N T E D   D A T A   F O R   T H I S   C U R V E   F O L L O W S
1     ROTATING CYCLIC STRUCTURE (FREQ+BASE ACCN LOADS, HARM. I/O)           /    95 SUN SOLARIS NASTRAN    / MAY 18, 95 / PAGE   184
      NASTRAN TEST PROBLEM NO. T08-02-1A                                                                                            
0     KINDEX 2C                                                                                               SUBCASE 4             


     ELEMENT-STRESS  CURVE   ID =       11     COMPONENT = 10     WHOLE FRAME


                           PRINT NUMBER          X-VALUE              Y-VALUE              CARD NUMBER
                                  1             1.100000E+03         0.000000E+00
                                  2             1.150000E+03         0.000000E+00
                                  3             1.177600E+03         0.000000E+00
                                  4             1.195700E+03         0.000000E+00
                                  5             1.213854E+03         0.000000E+00
                                  6             1.232000E+03         0.000000E+00
                                  7             1.250100E+03         0.000000E+00
                                  8             1.280000E+03         0.000000E+00
                                  9             1.320000E+03         0.000000E+00
                                 10             1.700000E+03         2.778417E+02
                                 11             1.750000E+03         4.601888E+02
                                 12             1.777600E+03         7.465438E+02
                                 13             1.795700E+03         1.168279E+03
                                 14             1.813854E+03         1.433033E+03
                                 15             1.832000E+03         9.224543E+02
                                 16             1.850100E+03         5.815434E+02
                                 17             1.880000E+03         3.387245E+02
                                 18             1.920000E+03         2.076866E+02
                                 19             2.300000E+03         0.000000E+00
                                 20             2.350000E+03         0.000000E+00
                                 21             2.377600E+03         0.000000E+00
                                 22             2.395700E+03         0.000000E+00
                                 23             2.413854E+03         0.000000E+00
                                 24             2.432000E+03         0.000000E+00
                                 25             2.450100E+03         0.000000E+00
                                 26             2.480000E+03         0.000000E+00
                                 27             2.520000E+03         0.000000E+00
1     ROTATING CYCLIC STRUCTURE (FREQ+BASE ACCN LOADS, HARM. I/O)           /    95 SUN SOLARIS NASTRAN    / MAY 18, 95 / PAGE   185
      NASTRAN TEST PROBLEM NO. T08-02-1A                                                                                            
0     KINDEX 2C                                                                                               SUBCASE 4             



                                            X Y - O U T P U T   S U M M A R Y


     SUBCASE         4
      RESPONSE
      ELEMENT-STRESS  CURVE       11(12)
 
      XY-PAIRS BETWEEN XMIN AND XMAX WILL BE PRINTED
      XY-PAIRS WITHIN FRAME LIMITS WILL BE PLOTTED
      PLOTTER SPECIFIED IS NASTPLT DRUM  PLOTTER WITH    TYPING CAPABILITY.
      CSCALE =  1.00
      PAPER SIZE  8.00 X 10.50 INCHES SPECIFIED.
      PENSIZE =  1


     THIS IS CURVE   5 OF WHOLE FRAME    9


     CURVE  TITLE = 11(3),11(5),11(7),11(10),11(12),11(14)                                                                         
      X-AXIS TITLE =                           FREQUENCY (HERTZ)                                                                    
      Y-AXIS TITLE =                   ELEMENT STRESSES ( MAGNITUDE,PSI )                                                           





     THE FOLLOWING INFORMATION IS FOR THE ABOVE DEFINED CURVE ONLY.



      WITHIN THE FRAME X-LIMITS       (X =  1.100000E+03 TO  X =  2.520000E+03)


                              THE SMALLEST Y-VALUE =  0.000000E+00 AT X =   1.100000E+03


                              THE LARGEST  Y-VALUE =  2.182739E+02 AT X =   1.813854E+03




     WITHIN THE X-LIMITS OF ALL DATA (X =  1.100000E+03 TO  X =  2.520000E+03)


                              THE SMALLEST Y-VALUE =  0.000000E+00 AT X =   1.100000E+03


                              THE LARGEST  Y-VALUE =  2.182739E+02 AT X =   1.813854E+03




                                             E N D   O F   S U M M A R Y


                         P R I N T E D   D A T A   F O R   T H I S   C U R V E   F O L L O W S
1     ROTATING CYCLIC STRUCTURE (FREQ+BASE ACCN LOADS, HARM. I/O)           /    95 SUN SOLARIS NASTRAN    / MAY 18, 95 / PAGE   186
      NASTRAN TEST PROBLEM NO. T08-02-1A                                                                                            
0     KINDEX 2C                                                                                               SUBCASE 4             


     ELEMENT-STRESS  CURVE   ID =       11     COMPONENT = 12     WHOLE FRAME


                           PRINT NUMBER          X-VALUE              Y-VALUE              CARD NUMBER
                                  1             1.100000E+03         0.000000E+00
                                  2             1.150000E+03         0.000000E+00
                                  3             1.177600E+03         0.000000E+00
                                  4             1.195700E+03         0.000000E+00
                                  5             1.213854E+03         0.000000E+00
                                  6             1.232000E+03         0.000000E+00
                                  7             1.250100E+03         0.000000E+00
                                  8             1.280000E+03         0.000000E+00
                                  9             1.320000E+03         0.000000E+00
                                 10             1.700000E+03         4.413295E+01
                                 11             1.750000E+03         7.192551E+01
                                 12             1.777600E+03         1.155281E+02
                                 13             1.795700E+03         1.793023E+02
                                 14             1.813854E+03         2.182739E+02
                                 15             1.832000E+03         1.401064E+02
                                 16             1.850100E+03         8.783842E+01
                                 17             1.880000E+03         5.055602E+01
                                 18             1.920000E+03         3.039595E+01
                                 19             2.300000E+03         0.000000E+00
                                 20             2.350000E+03         0.000000E+00
                                 21             2.377600E+03         0.000000E+00
                                 22             2.395700E+03         0.000000E+00
                                 23             2.413854E+03         0.000000E+00
                                 24             2.432000E+03         0.000000E+00
                                 25             2.450100E+03         0.000000E+00
                                 26             2.480000E+03         0.000000E+00
                                 27             2.520000E+03         0.000000E+00
1     ROTATING CYCLIC STRUCTURE (FREQ+BASE ACCN LOADS, HARM. I/O)           /    95 SUN SOLARIS NASTRAN    / MAY 18, 95 / PAGE   187
      NASTRAN TEST PROBLEM NO. T08-02-1A                                                                                            
0     KINDEX 2C                                                                                               SUBCASE 4             



                                            X Y - O U T P U T   S U M M A R Y


     SUBCASE         4
      RESPONSE
      ELEMENT-STRESS  CURVE       11(14)
 
      XY-PAIRS BETWEEN XMIN AND XMAX WILL BE PRINTED
      XY-PAIRS WITHIN FRAME LIMITS WILL BE PLOTTED
      PLOTTER SPECIFIED IS NASTPLT DRUM  PLOTTER WITH    TYPING CAPABILITY.
      CSCALE =  1.00
      PAPER SIZE  8.00 X 10.50 INCHES SPECIFIED.
      PENSIZE =  1


     THIS IS CURVE   6 OF WHOLE FRAME    9


     CURVE  TITLE = 11(3),11(5),11(7),11(10),11(12),11(14)                                                                         
      X-AXIS TITLE =                           FREQUENCY (HERTZ)                                                                    
      Y-AXIS TITLE =                   ELEMENT STRESSES ( MAGNITUDE,PSI )                                                           





     THE FOLLOWING INFORMATION IS FOR THE ABOVE DEFINED CURVE ONLY.



      WITHIN THE FRAME X-LIMITS       (X =  1.100000E+03 TO  X =  2.520000E+03)


                              THE SMALLEST Y-VALUE =  0.000000E+00 AT X =   1.100000E+03


                              THE LARGEST  Y-VALUE =  1.729657E+02 AT X =   1.813854E+03




     WITHIN THE X-LIMITS OF ALL DATA (X =  1.100000E+03 TO  X =  2.520000E+03)


                              THE SMALLEST Y-VALUE =  0.000000E+00 AT X =   1.100000E+03


                              THE LARGEST  Y-VALUE =  1.729657E+02 AT X =   1.813854E+03




                                             E N D   O F   S U M M A R Y


                         P R I N T E D   D A T A   F O R   T H I S   C U R V E   F O L L O W S
1     ROTATING CYCLIC STRUCTURE (FREQ+BASE ACCN LOADS, HARM. I/O)           /    95 SUN SOLARIS NASTRAN    / MAY 18, 95 / PAGE   188
      NASTRAN TEST PROBLEM NO. T08-02-1A                                                                                            
0     KINDEX 2C                                                                                               SUBCASE 4             


     ELEMENT-STRESS  CURVE   ID =       11     COMPONENT = 14     WHOLE FRAME


                           PRINT NUMBER          X-VALUE              Y-VALUE              CARD NUMBER
                                  1             1.100000E+03         0.000000E+00
                                  2             1.150000E+03         0.000000E+00
                                  3             1.177600E+03         0.000000E+00
                                  4             1.195700E+03         0.000000E+00
                                  5             1.213854E+03         0.000000E+00
                                  6             1.232000E+03         0.000000E+00
                                  7             1.250100E+03         0.000000E+00
                                  8             1.280000E+03         0.000000E+00
                                  9             1.320000E+03         0.000000E+00
                                 10             1.700000E+03         3.563684E+01
                                 11             1.750000E+03         5.857209E+01
                                 12             1.777600E+03         9.388234E+01
                                 13             1.795700E+03         1.439402E+02
                                 14             1.813854E+03         1.729657E+02
                                 15             1.832000E+03         1.131941E+02
                                 16             1.850100E+03         7.142776E+01
                                 17             1.880000E+03         4.102967E+01
                                 18             1.920000E+03         2.437536E+01
                                 19             2.300000E+03         0.000000E+00
                                 20             2.350000E+03         0.000000E+00
                                 21             2.377600E+03         0.000000E+00
                                 22             2.395700E+03         0.000000E+00
                                 23             2.413854E+03         0.000000E+00
                                 24             2.432000E+03         0.000000E+00
                                 25             2.450100E+03         0.000000E+00
                                 26             2.480000E+03         0.000000E+00
                                 27             2.520000E+03         0.000000E+00




                                        * * * END OF JOB * * *
1
 JOB TITLE =  ROTATING CYCLIC STRUCTURE (FREQ+BASE ACCN LOADS, HARM. I/O)        
 DATE:  5/18/95
 END TIME: 10:30:17
 TOTAL WALL CLOCK TIME      4 SEC.
 
