     NASTRAN SYSTEM(93)=1, FILES=PLT2                                                






                                  ****
                                *      *
                               *        *
                               *  N A S T R A N
                               *        *
                                *      *
                                  ****


                             SUN COMPUTER SYSTEMS    
                                SOLARIS VERSION

                          SYSTEM RELEASE -  1995 ED.

                                DISTRIBUTED BY

         COMPUTER SOFTWARE MANAGEMENT AND INFORMATION CENTER (COSMIC)
                 UNIVERSITY OF GEORGIA, ATHENS, GEORGIA 30602
                 PHONE: (706)542-3265      FAX: (706)542-4807
1                                                                           /    95 SUN SOLARIS NASTRAN    / MAY 18, 95 / PAGE     2
                                                                                                                                    
0                                                                                                                                   
                                                                                                         
                                                                                                         
                         INSTALLATION CENTER USER INFORMATION GIVEN IN THIS SECTION                      
                                                                                                         
                                     *********************************************                       
                                     *                                           *                       
                                     *  PLEASE READ THE COMMENT IN DEMO PROBLEM  *                       
                                     *  D01002A ABOUT SYSTEM TIMING CONSTANTS    *                       
                                     *                                           *                       
                                     *********************************************                       
                                                                                                         
                         ===X=    TOP OF PAGE REQUEST IF 'X' IS REPLACED BY '='                          
                                                                                                         
1                                                                           /    95 SUN SOLARIS NASTRAN    / MAY 18, 95 / PAGE     3
                                                                                                                                    
0                                                                                                                                   
0*** USER INFORMATION MESSAGE 225, GINO TIME CONSTANTS ARE BEING COMPUTED
     (SEE NASINFO FILE FOR ELIMINATION OF THESE COMPUTATIONS)
1                                                                           /    95 SUN SOLARIS NASTRAN    / MAY 18, 95 / PAGE     4
                                                                                                                                    
0        N A S T R A N    E X E C U T I V E    C O N T R O L    D E C K    E C H O                                                  
0                                                                                                                                   
                                                                                                                                    
                                                                                                                                    
     ID    T09061A,NASTRAN                                                           
     APP   AERO                                                                      
     SOL   9                                                                         
     DIAG  14                                                                        
     TIME  1000                                                                      
     CEND                                                                            


0*** USER INFORMATION MESSAGE, TURN DIAG 48 ON FOR NASTRAN RELEASE NEWS, DIAG DEFINITION, NEW DMAP
         MODULES AND NEW BULKDATA CARDS INFORMATION
1     MODAL FLUTTER ANALYSIS OF AN ADVANCED TURBOPROP                       /    95 SUN SOLARIS NASTRAN    / MAY 18, 95 / PAGE     5
      NASTRAN TEST PROBLEM NO. T09-06-1A                                                                                            
0     10 BLADES, 6800 RPM, .70 TUNNEL MACH NO.                                                                                      
0                                        C A S E    C O N T R O L   D E C K   E C H O                                               
                 CARD                                                                                                               
                 COUNT                                                                                                              
                  1      TITLE    = MODAL FLUTTER ANALYSIS OF AN ADVANCED TURBOPROP                      
                  2      SUBTITLE = NASTRAN TEST PROBLEM NO. T09-06-1A                                   
                  3      LABEL    = 10 BLADES, 6800 RPM, .70 TUNNEL MACH NO.                             
                  4      $                                                                               
                  5      SPC      = 1                                                                    
                  6      METHOD   = 1                                                                    
                  7      FMETHOD  = 1                                                                    
                  8      $                                                                               
                  9      OUTPUT(XYOUT)                                                                   
                 10      $                                                                               
                 11      PLOTTER NASTPLT D,0                                                             
                 12      XPAPER = 8.5                                                                    
                 13      YPAPER = 11.0                                                                   
                 14      YAXIS  = YES                                                                    
                 15      XINTERCEPT = 7046.0  $ OPERATING VELOCITY                                       
                 16      XTAXIS =  YES                                                                   
                 17      XBAXIS =  YES                                                                   
                 18      CURVELINESYMBOL = 6                                                             
                 19      XDIVISIONS   = 10                                                               
                 20      YTDIVISIONS  = 10                                                               
                 21      YBDIVISIONS  = 10                                                               
                 22      YTGRID LINES = YES                                                              
                 23      YBGRID LINES = YES                                                              
                 24      XTGRID LINES = YES                                                              
                 25      XBGRID LINES = YES                                                              
                 26      XTITLE  =     VELOCITY VSBAR , IN/SEC....REF VSBAR = 7046 IN/SEC, CASE 3        
                 27      YTTITLE =          DAMPING G                                                    
                 28      YBTITLE =     FREQUENCY F, HZ                                                   
                 29      TCURVE  =   K=.1,.2,.3,.6,.9,1.2,1.5,SIG=0.0                                    
                 30      XYPLOT,XYPRINT VG/ 1(G,F), 2(G,F), 3(G,F), 4(G,F), 5(G,F), 6(G,F)               
                 31      TCURVE  =   K=.1,.2,.3,.6,.9,1.2,1.5,SIG=36.0                                   
                 32      XYPLOT,XYPRINT VG/ 7(G,F), 8(G,F), 9(G,F),10(G,F),11(G,F),12(G,F)               
                 33      TCURVE  =   K=.1,.2,.3,.6,.9,1.2,1.5,SIG=72.0                                   
                 34      XYPLOT,XYPRINT VG/13(G,F),14(G,F),15(G,F),16(G,F),17(G,F),18(G,F)               
                 35      TCURVE  =   K=.1,.2,.3,.6,.9,1.2,1.5,SIG=108.0                                  
                 36      XYPLOT,XYPRINT VG/19(G,F),20(G,F),21(G,F),22(G,F),23(G,F),24(G,F)               
                 37      TCURVE  =   K=.1,.2,.3,.6,.9,1.2,1.5,SIG=144.0                                  
                 38      XYPLOT,XYPRINT VG/25(G,F),26(G,F),27(G,F),28(G,F),29(G,F),30(G,F)               
                 39      TCURVE  =   K=.1,.2,.3,.6,.9,1.2,1.5,SIG=180.0                                  
                 40      XYPLOT,XYPRINT VG/31(G,F),32(G,F),33(G,F),34(G,F),35(G,F),36(G,F)               
                 41      TCURVE  =   K=.1,.2,.3,.6,.9,1.2,1.5,SIG=-144.0                                 
                 42      XYPLOT,XYPRINT VG/37(G,F),38(G,F),39(G,F),40(G,F),41(G,F),42(G,F)               
                 43      TCURVE  =   K=.1,.2,.3,.6,.9,1.2,1.5,SIG=-108.0                                 
                 44      XYPLOT,XYPRINT VG/43(G,F),44(G,F),45(G,F),46(G,F),47(G,F),48(G,F)               
                 45      TCURVE  =   K=.1,.2,.3,.6,.9,1.2,1.5,SIG=-72.0                                  
                 46      XYPLOT,XYPRINT VG/49(G,F),50(G,F),51(G,F),52(G,F),53(G,F),54(G,F)               
                 47      TCURVE  =   K=.1,.2,.3,.6,.9,1.2,1.5,SIG=-36.0                                  
1     MODAL FLUTTER ANALYSIS OF AN ADVANCED TURBOPROP                       /    95 SUN SOLARIS NASTRAN    / MAY 18, 95 / PAGE     6
      NASTRAN TEST PROBLEM NO. T09-06-1A                                                                                            
0     10 BLADES, 6800 RPM, .70 TUNNEL MACH NO.                                                                                      
0                                        C A S E    C O N T R O L   D E C K   E C H O                                               
                 CARD                                                                                                               
                 COUNT                                                                                                              
                 48      XYPLOT,XYPRINT VG/55(G,F),56(G,F),57(G,F),58(G,F),59(G,F),60(G,F)               
                 49      BEGIN BULK                                                                      


                        (NO. OF UNSORTED BULK DATA CARDS READ =   650, INCLUDING   0 COMMENT CARDS)
0*** USER INFORMATION MESSAGE 207, BULK DATA DECK IS NOT SORTED. NASTRAN WILL RE-ORDER THE INPUT DECK.
1     MODAL FLUTTER ANALYSIS OF AN ADVANCED TURBOPROP                       /    95 SUN SOLARIS NASTRAN    / MAY 18, 95 / PAGE     7
      NASTRAN TEST PROBLEM NO. T09-06-1A                                                                                            
0     10 BLADES, 6800 RPM, .70 TUNNEL MACH NO.                                                                                      
0                                                 S O R T E D   B U L K    D A T A    E C H O                                       
                     CARD                                                                                                           
                     COUNT        ---1--- +++2+++ ---3--- +++4+++ ---5--- +++6+++ ---7--- +++8+++ ---9--- +++10+++                  
                    1-        AERO    0       1.0     2.905   9.763E-8                                        
                    2-        CORD2R  1               0.0     0.0     0.0     -.0277  -.9996  0.0     +C2R1   
                    3-        +C2R1   .9996   -.0277  0.0                                                     
                    4-        CQUAD2  1       1       1       2       9       8                               
                    5-        CQUAD2  2       2       2       3       10      9                               
                    6-        CQUAD2  3       3       3       4       11      10                              
                    7-        CQUAD2  4       4       4       5       12      11                              
                    8-        CQUAD2  5       5       5       6       13      12                              
                    9-        CQUAD2  6       6       6       7       14      13                              
                   10-        CQUAD2  7       7       8       9       16      15                              
                   11-        CQUAD2  8       8       9       10      17      16                              
                   12-        CQUAD2  9       9       10      11      18      17                              
                   13-        CQUAD2  10      10      11      12      19      18                              
                   14-        CQUAD2  11      11      12      13      20      19                              
                   15-        CQUAD2  12      12      13      14      21      20                              
                   16-        CQUAD2  13      13      15      16      23      22                              
                   17-        CQUAD2  14      14      16      17      24      23                              
                   18-        CQUAD2  15      15      17      18      25      24                              
                   19-        CQUAD2  16      16      18      19      26      25                              
                   20-        CQUAD2  17      17      19      20      27      26                              
                   21-        CQUAD2  18      18      20      21      28      27                              
                   22-        CQUAD2  19      19      22      23      30      29                              
                   23-        CQUAD2  20      20      23      24      31      30                              
                   24-        CQUAD2  21      21      24      25      32      31                              
                   25-        CQUAD2  22      22      25      26      33      32                              
                   26-        CQUAD2  23      23      26      27      34      33                              
                   27-        CQUAD2  24      24      27      28      35      34                              
                   28-        CQUAD2  25      25      29      30      37      36                              
                   29-        CQUAD2  26      26      30      31      38      37                              
                   30-        CQUAD2  27      27      31      32      39      38                              
                   31-        CQUAD2  28      28      32      33      40      39                              
                   32-        CQUAD2  29      29      33      34      41      40                              
                   33-        CQUAD2  30      30      34      35      42      41                              
                   34-        CQUAD2  31      31      36      37      44      43                              
                   35-        CQUAD2  32      32      37      38      45      44                              
                   36-        CQUAD2  33      33      38      39      46      45                              
                   37-        CQUAD2  34      34      39      40      47      46                              
                   38-        CQUAD2  35      35      40      41      48      47                              
                   39-        CQUAD2  36      36      41      42      49      48                              
                   40-        CQUAD2  37      37      43      44      51      50                              
                   41-        CQUAD2  38      38      44      45      52      51                              
                   42-        CQUAD2  39      39      45      46      53      52                              
                   43-        CQUAD2  40      40      46      47      54      53                              
                   44-        CQUAD2  41      41      47      48      55      54                              
                   45-        CQUAD2  42      42      48      49      56      55                              
                   46-        CQUAD2  43      43      50      51      58      57                              
                   47-        CQUAD2  44      44      51      52      59      58                              
1     MODAL FLUTTER ANALYSIS OF AN ADVANCED TURBOPROP                       /    95 SUN SOLARIS NASTRAN    / MAY 18, 95 / PAGE     8
      NASTRAN TEST PROBLEM NO. T09-06-1A                                                                                            

      10 BLADES, 6800 RPM, .70 TUNNEL MACH NO.                                                                                      

                                                  S O R T E D   B U L K    D A T A    E C H O                                       
                     CARD                                                                                                           
                     COUNT        ---1--- +++2+++ ---3--- +++4+++ ---5--- +++6+++ ---7--- +++8+++ ---9--- +++10+++                  
                   48-        CQUAD2  45      45      52      53      60      59                              
                   49-        CQUAD2  46      46      53      54      61      60                              
                   50-        CQUAD2  47      47      54      55      62      61                              
                   51-        CQUAD2  48      48      55      56      63      62                              
                   52-        CQUAD2  49      49      57      58      65      64                              
                   53-        CQUAD2  50      50      58      59      66      65                              
                   54-        CQUAD2  51      51      59      60      67      66                              
                   55-        CQUAD2  52      52      60      61      68      67                              
                   56-        CQUAD2  53      53      61      62      69      68                              
                   57-        CQUAD2  54      54      62      63      70      69                              
                   58-        CQUAD2  55      55      64      65      72      71                              
                   59-        CQUAD2  56      56      65      66      73      72                              
                   60-        CQUAD2  57      57      66      67      74      73                              
                   61-        CQUAD2  58      58      67      68      75      74                              
                   62-        CQUAD2  59      59      68      69      76      75                              
                   63-        CQUAD2  60      60      69      70      77      76                              
                   64-        CQUAD2  61      61      71      72      79      78                              
                   65-        CQUAD2  62      62      72      73      80      79                              
                   66-        CQUAD2  63      63      73      74      81      80                              
                   67-        CQUAD2  64      64      74      75      82      81                              
                   68-        CQUAD2  65      65      75      76      83      82                              
                   69-        CQUAD2  66      66      76      77      84      83                              
                   70-        CQUAD2  67      67      78      79      86      85                              
                   71-        CQUAD2  68      68      79      80      87      86                              
                   72-        CQUAD2  69      69      80      81      88      87                              
                   73-        CQUAD2  70      70      81      82      89      88                              
                   74-        CQUAD2  71      71      82      83      90      89                              
                   75-        CQUAD2  72      72      83      84      91      90                              
                   76-        CQUAD2  73      73      85      86      93      92                              
                   77-        CQUAD2  74      74      86      87      94      93                              
                   78-        CQUAD2  75      75      87      88      95      94                              
                   79-        CQUAD2  76      76      88      89      96      95                              
                   80-        CQUAD2  77      77      89      90      97      96                              
                   81-        CQUAD2  78      78      90      91      98      97                              
                   82-        CQUAD2  79      79      92      93      100     99                              
                   83-        CQUAD2  80      80      93      94      101     100                             
                   84-        CQUAD2  81      81      94      95      102     101                             
                   85-        CQUAD2  82      82      95      96      103     102                             
                   86-        CQUAD2  83      83      96      97      104     103                             
                   87-        CQUAD2  84      84      97      98      105     104                             
                   88-        CQUAD2  85      85      99      100     107     106                             
                   89-        CQUAD2  86      86      100     101     108     107                             
                   90-        CQUAD2  87      87      101     102     109     108                             
                   91-        CQUAD2  88      88      102     103     110     109                             
                   92-        CQUAD2  89      89      103     104     111     110                             
                   93-        CQUAD2  90      90      104     105     112     111                             
                   94-        CQUAD2  91      91      106     107     114     113                             
1     MODAL FLUTTER ANALYSIS OF AN ADVANCED TURBOPROP                       /    95 SUN SOLARIS NASTRAN    / MAY 18, 95 / PAGE     9
      NASTRAN TEST PROBLEM NO. T09-06-1A                                                                                            

      10 BLADES, 6800 RPM, .70 TUNNEL MACH NO.                                                                                      

                                                  S O R T E D   B U L K    D A T A    E C H O                                       
                     CARD                                                                                                           
                     COUNT        ---1--- +++2+++ ---3--- +++4+++ ---5--- +++6+++ ---7--- +++8+++ ---9--- +++10+++                  
                   95-        CQUAD2  92      92      107     108     115     114                             
                   96-        CQUAD2  93      93      108     109     116     115                             
                   97-        CQUAD2  94      94      109     110     117     116                             
                   98-        CQUAD2  95      95      110     111     118     117                             
                   99-        CQUAD2  96      96      111     112     119     118                             
                  100-        CQUAD2  97      97      113     114     121     120                             
                  101-        CQUAD2  98      98      114     115     122     121                             
                  102-        CQUAD2  99      99      115     116     123     122                             
                  103-        CQUAD2  100     100     116     117     124     123                             
                  104-        CQUAD2  101     101     117     118     125     124                             
                  105-        CQUAD2  102     102     118     119     126     125                             
                  106-        CQUAD2  103     103     120     121     128     127                             
                  107-        CQUAD2  104     104     121     122     129     128                             
                  108-        CQUAD2  105     105     122     123     130     129                             
                  109-        CQUAD2  106     106     123     124     131     130                             
                  110-        CQUAD2  107     107     124     125     132     131                             
                  111-        CQUAD2  108     108     125     126     133     132                             
                  112-        CQUAD2  109     109     127     128     135     134                             
                  113-        CQUAD2  110     110     128     129     136     135                             
                  114-        CQUAD2  121     121     131     132     144     143                             
                  115-        CQUAD2  122     122     132     133     145     144                             
                  116-        CQUAD2  123     123     138     139     147     146                             
                  117-        CQUAD2  124     124     139     140     148     147                             
                  118-        CQUAD2  125     125     140     141     149     148                             
                  119-        CQUAD2  126     126     141     142     150     149                             
                  120-        CQUAD2  127     127     146     147     152     151                             
                  121-        CQUAD2  128     128     147     148     153     152                             
                  122-        CQUAD2  129     129     148     149     154     153                             
                  123-        CQUAD2  130     130     149     150     155     154                             
                  124-        CTRIA2  111     111     129     138     136                                     
                  125-        CTRIA2  112     112     129     137     138                                     
                  126-        CTRIA2  113     113     129     130     137                                     
                  127-        CTRIA2  114     114     137     130     140                                     
                  128-        CTRIA2  115     115     138     137     139                                     
                  129-        CTRIA2  116     116     139     137     140                                     
                  130-        CTRIA2  117     117     140     130     141                                     
                  131-        CTRIA2  118     118     141     130     142                                     
                  132-        CTRIA2  119     119     130     131     142                                     
                  133-        CTRIA2  120     120     142     131     143                                     
                  134-        CYJOIN  1               155                                                     
                  135-        CYJOIN  2               151                                                     
                  136-        EIGR    1       INV     100.0   2000.0  10      8                       +E1     
                  137-        +E1     MAX                                                                     
                  138-        FLFACT  1       1.0                                                             
                  139-        FLFACT  2       0.0     36.0    72.0    108.0   144.0   180.0   -144.0  +FL21   
                  140-        +FL21   -108.0  -72.    -36.                                                    
                  141-        FLFACT  3       .10     .20     .30     .6      .9      1.2     1.5             
1     MODAL FLUTTER ANALYSIS OF AN ADVANCED TURBOPROP                       /    95 SUN SOLARIS NASTRAN    / MAY 18, 95 / PAGE    10
      NASTRAN TEST PROBLEM NO. T09-06-1A                                                                                            

      10 BLADES, 6800 RPM, .70 TUNNEL MACH NO.                                                                                      

                                                  S O R T E D   B U L K    D A T A    E C H O                                       
                     CARD                                                                                                           
                     COUNT        ---1--- +++2+++ ---3--- +++4+++ ---5--- +++6+++ ---7--- +++8+++ ---9--- +++10+++                  
                  142-        FLUTTER 1       KE      1       2       3       L       6                       
                  143-        GRDSET          1                               1                               
                  144-        GRID*   1                               2.419817E+00    1.244079E+01    *GD    1
                  145-        *GD    1-2.031032E+00                                                           
                  146-        GRID*   2                               2.457173E+00    1.238143E+01    *GD    2
                  147-        *GD    2-2.058249E+00                                                           
                  148-        GRID*   3                               2.551602E+00    1.225216E+01    *GD    3
                  149-        *GD    3-2.114527E+00                                                           
                  150-        GRID*   4                               2.683628E+00    1.202870E+01    *GD    4
                  151-        *GD    4-2.173213E+00                                                           
                  152-        GRID*   5                               2.865225E+00    1.172653E+01    *GD    5
                  153-        *GD    5-2.216011E+00                                                           
                  154-        GRID*   6                               2.990463E+00    1.158475E+01    *GD    6
                  155-        *GD    6-2.254392E+00                                                           
                  156-        GRID*   7                               3.126074E+00    1.140011E+01    *GD    7
                  157-        *GD    7-2.266630E+00                                                           
                  158-        GRID*   8                               2.194761E+00    1.228047E+01    *GD    8
                  159-        *GD    8-1.843213E+00                                                           
                  160-        GRID*   9                               2.250464E+00    1.216055E+01    *GD    9
                  161-        *GD    9-1.876635E+00                                                           
                  162-        GRID*   10                              2.377542E+00    1.206568E+01    *GD   10
                  163-        *GD   10-1.963854E+00                                                           
                  164-        GRID*   11                              2.548495E+00    1.179959E+01    *GD   11
                  165-        *GD   11-2.027197E+00                                                           
                  166-        GRID*   12                              2.733165E+00    1.150046E+01    *GD   12
                  167-        *GD   12-2.066389E+00                                                           
                  168-        GRID*   13                              2.832836E+00    1.132142E+01    *GD   13
                  169-        *GD   13-2.069136E+00                                                           
                  170-        GRID*   14                              2.996484E+00    1.108674E+01    *GD   14
                  171-        *GD   14-2.097482E+00                                                           
                  172-        GRID*   15                              1.964924E+00    1.211923E+01    *GD   15
                  173-        *GD   15-1.666834E+00                                                           
                  174-        GRID*   16                              2.043783E+00    1.199233E+01    *GD   16
                  175-        *GD   16-1.720535E+00                                                           
                  176-        GRID*   17                              2.109893E+00    1.187122E+01    *GD   17
                  177-        *GD   17-1.744548E+00                                                           
                  178-        GRID*   18                              2.348317E+00    1.154853E+01    *GD   18
                  179-        *GD   18-1.835006E+00                                                           
                  180-        GRID*   19                              2.540135E+00    1.125291E+01    *GD   19
                  181-        *GD   19-1.870254E+00                                                           
                  182-        GRID*   20                              2.675576E+00    1.106813E+01    *GD   20
                  183-        *GD   20-1.882862E+00                                                           
                  184-        GRID*   21                              2.839677E+00    1.085337E+01    *GD   21
                  185-        *GD   21-1.909663E+00                                                           
                  186-        GRID*   22                              1.631763E+00    1.188205E+01    *GD   22
                  187-        *GD   22-1.396830E+00                                                           
                  188-        GRID*   23                              1.673820E+00    1.179605E+01    *GD   23
1     MODAL FLUTTER ANALYSIS OF AN ADVANCED TURBOPROP                       /    95 SUN SOLARIS NASTRAN    / MAY 18, 95 / PAGE    11
      NASTRAN TEST PROBLEM NO. T09-06-1A                                                                                            

      10 BLADES, 6800 RPM, .70 TUNNEL MACH NO.                                                                                      

                                                  S O R T E D   B U L K    D A T A    E C H O                                       
                     CARD                                                                                                           
                     COUNT        ---1--- +++2+++ ---3--- +++4+++ ---5--- +++6+++ ---7--- +++8+++ ---9--- +++10+++                  
                  189-        *GD   23-1.420859E+00                                                           
                  190-        GRID*   24                              1.815764E+00    1.160683E+01    *GD   24
                  191-        *GD   24-1.491647E+00                                                           
                  192-        GRID*   25                              2.063309E+00    1.124282E+01    *GD   25
                  193-        *GD   25-1.576361E+00                                                           
                  194-        GRID*   26                              2.302190E+00    1.087758E+01    *GD   26
                  195-        *GD   26-1.640171E+00                                                           
                  196-        GRID*   27                              2.437845E+00    1.068192E+01    *GD   27
                  197-        *GD   27-1.643727E+00                                                           
                  198-        GRID*   28                              2.632743E+00    1.045467E+01    *GD   28
                  199-        *GD   28-1.652845E+00                                                           
                  200-        GRID*   29                              1.311218E+00    1.164496E+01    *GD   29
                  201-        *GD   29-1.141120E+00                                                           
                  202-        GRID*   30                              1.360893E+00    1.154351E+01    *GD   30
                  203-        *GD   30-1.161242E+00                                                           
                  204-        GRID*   31                              1.501914E+00    1.131251E+01    *GD   31
                  205-        *GD   31-1.229293E+00                                                           
                  206-        GRID*   32                              1.786772E+00    1.089894E+01    *GD   32
                  207-        *GD   32-1.340499E+00                                                           
                  208-        GRID*   33                              2.047144E+00    1.055134E+01    *GD   33
                  209-        *GD   33-1.383823E+00                                                           
                  210-        GRID*   34                              2.220435E+00    1.030633E+01    *GD   34
                  211-        *GD   34-1.413691E+00                                                           
                  212-        GRID*   35                              2.465178E+00    1.012088E+01    *GD   35
                  213-        *GD   35-1.453387E+00                                                           
                  214-        GRID*   36                              9.178853E-01    1.134436E+01    *GD   36
                  215-        *GD   36-8.344505E-01                                                           
                  216-        GRID*   37                              9.881784E-01    1.123093E+01    *GD   37
                  217-        *GD   37-8.854066E-01                                                           
                  218-        GRID*   38                              1.129425E+00    1.096814E+01    *GD   38
                  219-        *GD   38-9.357375E-01                                                           
                  220-        GRID*   39                              1.453193E+00    1.050240E+01    *GD   39
                  221-        *GD   39-1.043262E+00                                                           
                  222-        GRID*   40                              1.781501E+00    1.010489E+01    *GD   40
                  223-        *GD   40-1.113802E+00                                                           
                  224-        GRID*   41                              1.955276E+00    9.860262E+00    *GD   41
                  225-        *GD   41-1.142711E+00                                                           
                  226-        GRID*   42                              2.199200E+00    9.625038E+00    *GD   42
                  227-        *GD   42-1.183993E+00                                                           
                  228-        GRID*   43                              4.878750E-01    1.099476E+01    *GD   43
                  229-        *GD   43-5.068682E-01                                                           
                  230-        GRID*   44                              5.593370E-01    1.085660E+01    *GD   44
                  231-        *GD   44-5.470380E-01                                                           
                  232-        GRID*   45                              7.476242E-01    1.062701E+01    *GD   45
                  233-        *GD   45-6.576909E-01                                                           
                  234-        GRID*   46                              1.137788E+00    1.008176E+01    *GD   46
                  235-        *GD   46-8.041450E-01                                                           
1     MODAL FLUTTER ANALYSIS OF AN ADVANCED TURBOPROP                       /    95 SUN SOLARIS NASTRAN    / MAY 18, 95 / PAGE    12
      NASTRAN TEST PROBLEM NO. T09-06-1A                                                                                            

      10 BLADES, 6800 RPM, .70 TUNNEL MACH NO.                                                                                      

                                                  S O R T E D   B U L K    D A T A    E C H O                                       
                     CARD                                                                                                           
                     COUNT        ---1--- +++2+++ ---3--- +++4+++ ---5--- +++6+++ ---7--- +++8+++ ---9--- +++10+++                  
                  236-        GRID*   47                              1.466719E+00    9.623438E+00    *GD   47
                  237-        *GD   47-8.569880E-01                                                           
                  238-        GRID*   48                              1.670425E+00    9.369388E+00    *GD   48
                  239-        *GD   48-8.965883E-01                                                           
                  240-        GRID*   49                              1.905910E+00    9.134694E+00    *GD   49
                  241-        *GD   49-9.252617E-01                                                           
                  242-        GRID*   50                              -1.396976E-02   1.059563E+01    *GD   50
                  243-        *GD   50-1.396792E-01                                                           
                  244-        GRID*   51                              7.075590E-02    1.044524E+01    *GD   51
                  245-        *GD   51-2.047331E-01                                                           
                  246-        GRID*   52                              2.875357E-01    1.012399E+01    *GD   52
                  247-        *GD   52-3.129540E-01                                                           
                  248-        GRID*   53                              7.360002E-01    9.570383E+00    *GD   53
                  249-        *GD   53-5.007564E-01                                                           
                  250-        GRID*   54                              1.103680E+00    9.064291E+00    *GD   54
                  251-        *GD   54-5.847520E-01                                                           
                  252-        GRID*   55                              1.308623E+00    8.811132E+00    *GD   55
                  253-        *GD   55-6.212754E-01                                                           
                  254-        GRID*   56                              1.586562E+00    8.499916E+00    *GD   56
                  255-        *GD   56-6.411608E-01                                                           
                  256-        GRID*   57                              -4.000301E-01   1.022161E+01    *GD   57
                  257-        *GD   571.274626E-01                                                            
                  258-        GRID*   58                              -3.109443E-01   1.007667E+01    *GD   58
                  259-        *GD   586.474346E-02                                                            
                  260-        GRID*   59                              -4.257504E-02   9.746097E+00    *GD   59
                  261-        *GD   59-9.011447E-02                                                           
                  262-        GRID*   60                              4.317413E-01    9.133682E+00    *GD   60
                  263-        *GD   60-2.848848E-01                                                           
                  264-        GRID*   61                              8.400738E-01    8.629044E+00    *GD   61
                  265-        *GD   61-3.864452E-01                                                           
                  266-        GRID*   62                              1.075119E+00    8.326850E+00    *GD   62
                  267-        *GD   62-4.330833E-01                                                           
                  268-        GRID*   63                              1.372284E+00    7.998097E+00    *GD   63
                  269-        *GD   63-4.656390E-01                                                           
                  270-        GRID*   64                              -8.876041E-01   9.747480E+00    *GD   64
                  271-        *GD   644.344531E-01                                                            
                  272-        GRID*   65                              -7.852193E-01   9.579490E+00    *GD   65
                  273-        *GD   653.506024E-01                                                            
                  274-        GRID*   66                              -4.903399E-01   9.209817E+00    *GD   66
                  275-        *GD   661.900352E-01                                                            
                  276-        GRID*   67                              8.824563E-02    8.577651E+00    *GD   67
                  277-        *GD   67-4.811718E-02                                                           
                  278-        GRID*   68                              5.764167E-01    8.055484E+00    *GD   68
                  279-        *GD   68-1.965310E-01                                                           
                  280-        GRID*   69                              8.417380E-01    7.754916E+00    *GD   69
                  281-        *GD   69-2.687562E-01                                                           
                  282-        GRID*   70                              1.127948E+00    7.304899E+00    *GD   70
1     MODAL FLUTTER ANALYSIS OF AN ADVANCED TURBOPROP                       /    95 SUN SOLARIS NASTRAN    / MAY 18, 95 / PAGE    13
      NASTRAN TEST PROBLEM NO. T09-06-1A                                                                                            

      10 BLADES, 6800 RPM, .70 TUNNEL MACH NO.                                                                                      

                                                  S O R T E D   B U L K    D A T A    E C H O                                       
                     CARD                                                                                                           
                     COUNT        ---1--- +++2+++ ---3--- +++4+++ ---5--- +++6+++ ---7--- +++8+++ ---9--- +++10+++                  
                  283-        *GD   70-3.480781E-01                                                           
                  284-        GRID*   71                              -1.340348E+00   9.248205E+00    *GD   71
                  285-        *GD   716.895647E-01                                                            
                  286-        GRID*   72                              -1.211896E+00   9.064268E+00    *GD   72
                  287-        *GD   725.941403E-01                                                            
                  288-        GRID*   73                              -8.663878E-01   8.684826E+00    *GD   73
                  289-        *GD   734.148975E-01                                                            
                  290-        GRID*   74                              -1.849050E-01   7.997163E+00    *GD   74
                  291-        *GD   741.370639E-01                                                            
                  292-        GRID*   75                              3.419222E-01    7.404170E+00    *GD   75
                  293-        *GD   75-6.006306E-02                                                           
                  294-        GRID*   76                              6.469184E-01    7.104341E+00    *GD   76
                  295-        *GD   76-1.762950E-01                                                           
                  296-        GRID*   77                              9.723798E-01    6.754175E+00    *GD   77
                  297-        *GD   77-2.997903E-01                                                           
                  298-        GRID*   78                              -1.721028E+00   8.748784E+00    *GD   78
                  299-        *GD   788.876511E-01                                                            
                  300-        GRID*   79                              -1.560428E+00   8.580663E+00    *GD   79
                  301-        *GD   797.867939E-01                                                            
                  302-        GRID*   80                              -1.135652E+00   8.151909E+00    *GD   80
                  303-        *GD   805.662700E-01                                                            
                  304-        GRID*   81                              -4.147282E-01   7.403061E+00    *GD   81
                  305-        *GD   812.401156E-01                                                            
                  306-        GRID*   82                              1.852081E-01    6.753466E+00    *GD   82
                  307-        *GD   82-9.743430E-03                                                           
                  308-        GRID*   83                              5.310093E-01    6.498033E+00    *GD   83
                  309-        *GD   83-1.498038E-01                                                           
                  310-        GRID*   84                              9.002047E-01    6.103145E+00    *GD   84
                  311-        *GD   84-2.552683E-01                                                           
                  312-        GRID*   85                              -2.167293E+00   7.999124E+00    *GD   85
                  313-        *GD   851.095234E+00                                                            
                  314-        GRID*   86                              -1.965024E+00   7.748323E+00    *GD   86
                  315-        *GD   869.662098E-01                                                            
                  316-        GRID*   87                              -1.447637E+00   7.370351E+00    *GD   87
                  317-        *GD   877.037064E-01                                                            
                  318-        GRID*   88                              -5.651237E-01   6.672748E+00    *GD   88
                  319-        *GD   882.690339E-01                                                            
                  320-        GRID*   89                              1.080579E-01    6.122757E+00    *GD   89
                  321-        *GD   899.317569E-03                                                            
                  322-        GRID*   90                              4.961708E-01    5.802341E+00    *GD   90
                  323-        *GD   90-1.257418E-01                                                           
                  324-        GRID*   91                              9.450005E-01    5.499189E+00    *GD   91
                  325-        *GD   91-2.549328E-01                                                           
                  326-        GRID*   92                              -2.501855E+00   6.998549E+00    *GD   92
                  327-        *GD   921.159885E+00                                                            
                  328-        GRID*   93                              -2.243557E+00   6.869573E+00    *GD   93
                  329-        *GD   931.004043E+00                                                            
1     MODAL FLUTTER ANALYSIS OF AN ADVANCED TURBOPROP                       /    95 SUN SOLARIS NASTRAN    / MAY 18, 95 / PAGE    14
      NASTRAN TEST PROBLEM NO. T09-06-1A                                                                                            

      10 BLADES, 6800 RPM, .70 TUNNEL MACH NO.                                                                                      

                                                  S O R T E D   B U L K    D A T A    E C H O                                       
                     CARD                                                                                                           
                     COUNT        ---1--- +++2+++ ---3--- +++4+++ ---5--- +++6+++ ---7--- +++8+++ ---9--- +++10+++                  
                  330-        GRID*   94                              -1.663980E+00   6.498133E+00    *GD   94
                  331-        *GD   946.963711E-01                                                            
                  332-        GRID*   95                              -6.590906E-01   5.998307E+00    *GD   95
                  333-        *GD   952.671809E-01                                                            
                  334-        GRID*   96                              1.295218E-01    5.498876E+00    *GD   96
                  335-        *GD   96-1.361039E-02                                                           
                  336-        GRID*   97                              5.590804E-01    5.251667E+00    *GD   97
                  337-        *GD   97-1.359098E-01                                                           
                  338-        GRID*   98                              1.008383E+00    5.000014E+00    *GD   98
                  339-        *GD   98-2.679553E-01                                                           
                  340-        GRID*   99                              -2.658578E+00   5.997640E+00    *GD   99
                  341-        *GD   991.050546E+00                                                            
                  342-        GRID*   100                             -2.343632E+00   5.902313E+00    *GD  100
                  343-        *GD  1009.020252E-01                                                            
                  344-        GRID*   101                             -1.669497E+00   5.672649E+00    *GD  101
                  345-        *GD  1016.170529E-01                                                            
                  346-        GRID*   102                             -5.963364E-01   5.302208E+00    *GD  102
                  347-        *GD  1022.088603E-01                                                            
                  348-        GRID*   103                             1.954939E-01    4.999296E+00    *GD  103
                  349-        *GD  103-4.400190E-02                                                           
                  350-        GRID*   104                             6.204426E-01    4.870985E+00    *GD  104
                  351-        *GD  104-1.597679E-01                                                           
                  352-        GRID*   105                             1.050502E+00    4.750490E+00    *GD  105
                  353-        *GD  105-2.685744E-01                                                           
                  354-        GRID*   106                             -2.496761E+00   4.997375E+00    *GD  106
                  355-        *GD  1068.496489E-01                                                            
                  356-        GRID*   107                             -2.194051E+00   4.997557E+00    *GD  107
                  357-        *GD  1077.381414E-01                                                            
                  358-        GRID*   108                             -1.543487E+00   4.903041E+00    *GD  108
                  359-        *GD  1084.893306E-01                                                            
                  360-        GRID*   109                             -5.069078E-01   4.751890E+00    *GD  109
                  361-        *GD  1091.591752E-01                                                            
                  362-        GRID*   110                             2.414709E-01    4.620979E+00    *GD  110
                  363-        *GD  110-6.520444E-02                                                           
                  364-        GRID*   111                             6.511260E-01    4.550488E+00    *GD  111
                  365-        *GD  111-1.757268E-01                                                           
                  366-        GRID*   112                             1.101048E+00    4.450042E+00    *GD  112
                  367-        *GD  112-2.750542E-01                                                           
                  368-        GRID*   113                             -2.273488E+00   4.304033E+00    *GD  113
                  369-        *GD  1136.919722E-01                                                            
                  370-        GRID*   114                             -1.994164E+00   4.303668E+00    *GD  114
                  371-        *GD  1145.999017E-01                                                            
                  372-        GRID*   115                             -1.405457E+00   4.402983E+00    *GD  115
                  373-        *GD  1153.958974E-01                                                            
                  374-        GRID*   116                             -4.174645E-01   4.351565E+00    *GD  116
                  375-        *GD  1161.095533E-01                                                            
                  376-        GRID*   117                             3.215386E-01    4.300690E+00    *GD  117
1     MODAL FLUTTER ANALYSIS OF AN ADVANCED TURBOPROP                       /    95 SUN SOLARIS NASTRAN    / MAY 18, 95 / PAGE    15
      NASTRAN TEST PROBLEM NO. T09-06-1A                                                                                            

      10 BLADES, 6800 RPM, .70 TUNNEL MACH NO.                                                                                      

                                                  S O R T E D   B U L K    D A T A    E C H O                                       
                     CARD                                                                                                           
                     COUNT        ---1--- +++2+++ ---3--- +++4+++ ---5--- +++6+++ ---7--- +++8+++ ---9--- +++10+++                  
                  377-        *GD  117-8.331943E-02                                                           
                  378-        GRID*   118                             7.212664E-01    4.250240E+00    *GD  118
                  379-        *GD  118-1.836711E-01                                                           
                  380-        GRID*   119                             1.151106E+00    4.249871E+00    *GD  119
                  381-        *GD  119-2.738665E-01                                                           
                  382-        GRID*   120                             -1.996529E+00   3.623911E+00    *GD  120
                  383-        *GD  1205.362222E-01                                                            
                  384-        GRID*   121                             -1.717033E+00   3.593472E+00    *GD  121
                  385-        *GD  1214.447856E-01                                                            
                  386-        GRID*   122                             -1.167562E+00   3.662519E+00    *GD  122
                  387-        *GD  1222.925791E-01                                                            
                  388-        GRID*   123                             -2.483512E-01   3.751040E+00    *GD  123
                  389-        *GD  1234.970558E-02                                                            
                  390-        GRID*   124                             4.511786E-01    3.800256E+00    *GD  124
                  391-        *GD  124-1.118595E-01                                                           
                  392-        GRID*   125                             8.409850E-01    3.799903E+00    *GD  125
                  393-        *GD  125-2.023238E-01                                                           
                  394-        GRID*   126                             1.290810E+00    3.799548E+00    *GD  126
                  395-        *GD  126-2.828727E-01                                                           
                  396-        GRID*   127                             -1.608941E+00   2.873360E+00    *GD  127
                  397-        *GD  1273.625186E-01                                                            
                  398-        GRID*   128                             -1.308840E+00   2.992764E+00    *GD  128
                  399-        *GD  1282.919613E-01                                                            
                  400-        GRID*   129                             -9.387804E-01   3.101987E+00    *GD  129
                  401-        *GD  1292.111757E-01                                                            
                  402-        GRID*   130                             -8.885711E-02   3.300630E+00    *GD  130
                  403-        *GD  1301.195536E-01                                                            
                  404-        GRID*   131                             5.608683E-01    3.500004E+00    *GD  131
                  405-        *GD  131-1.414182E-01                                                           
                  406-        GRID*   132                             9.507490E-01    3.499724E+00    *GD  132
                  407-        *GD  132-2.217990E-01                                                           
                  408-        GRID*   133                             1.369986E+00    3.600738E+00    *GD  133
                  409-        *GD  133-2.995755E-01                                                           
                  410-        GRID*   134                             -1.368847E+00   2.576391E+00    *GD  134
                  411-        *GD  1342.804042E-01                                                            
                  412-        GRID*   135                             -1.139708E+00   2.642426E+00    *GD  135
                  413-        *GD  1352.214295E-01                                                            
                  414-        GRID*   136                             -7.496524E-01   2.721577E+00    *GD  136
                  415-        *GD  1361.307743E-01                                                            
                  416-        GRID*   137                             -4.592137E-01   3.001000E+00    *GD  137
                  417-        *GD  1379.034532E-02                                                            
                  418-        GRID*   138                             -4.695653E-01   2.760897E+00    *GD  138
                  419-        *GD  1387.035846E-02                                                            
                  420-        GRID*   139                             -2.695652E-01   2.800594E+00    *GD  139
                  421-        *GD  1393.012025E-02                                                            
                  422-        GRID*   140                             3.953020E-04    2.830271E+00    *GD  140
                  423-        *GD  140-2.015355E-02                                                           
1     MODAL FLUTTER ANALYSIS OF AN ADVANCED TURBOPROP                       /    95 SUN SOLARIS NASTRAN    / MAY 18, 95 / PAGE    16
      NASTRAN TEST PROBLEM NO. T09-06-1A                                                                                            

      10 BLADES, 6800 RPM, .70 TUNNEL MACH NO.                                                                                      

                                                  S O R T E D   B U L K    D A T A    E C H O                                       
                     CARD                                                                                                           
                     COUNT        ---1--- +++2+++ ---3--- +++4+++ ---5--- +++6+++ ---7--- +++8+++ ---9--- +++10+++                  
                  424-        GRID*   141                             2.705058E-01    2.980117E+00    *GD  141
                  425-        *GD  141-5.050298E-02                                                           
                  426-        GRID*   142                             4.705606E-01    3.069980E+00    *GD  142
                  427-        *GD  142-8.079284E-02                                                           
                  428-        GRID*   143                             7.906197E-01    3.199841E+00    *GD  143
                  429-        *GD  143-1.611942E-01                                                           
                  430-        GRID*   144                             1.100652E+00    3.339638E+00    *GD  144
                  431-        *GD  144-2.316611E-01                                                           
                  432-        GRID*   145                             1.475051E+00    3.454741E+00    *GD  145
                  433-        *GD  145-2.780864E-01                                                           
                  434-        GRID*   146                             -4.697902E-01   2.440455E+00    *GD  146
                  435-        *GD  1469.014469E-02                                                            
                  436-        GRID*   147                             -2.698651E-01   2.440315E+00    *GD  147
                  437-        *GD  1474.007889E-02                                                            
                  438-        GRID*   148                             8.703647E-05    2.440156E+00    *GD  148
                  439-        *GD  148-1.476011E-05                                                           
                  440-        GRID*   149                             2.700679E-01    2.440040E+00    *GD  149
                  441-        *GD  149-4.009397E-02                                                           
                  442-        GRID*   150                             4.700607E-01    2.439936E+00    *GD  150
                  443-        *GD  150-8.013493E-02                                                           
                  444-        GRID*   151                             -4.700000E-01   2.060000E+00    *GD  151
                  445-        *GD  1518.999997E-02                                                            
                  446-        GRID*   152                             -2.700000E-01   2.060000E+00    *GD  152
                  447-        *GD  1524.000000E-02                                                            
                  448-        GRID*   153                             0.0             2.060000E+00    *GD  153
                  449-        *GD  1530.0                                                                     
                  450-        GRID*   154                             2.700000E-01    2.060000E+00    *GD  154
                  451-        *GD  154-4.000000E-02                                                           
                  452-        GRID*   155                             4.700000E-01    2.060000E+00    *GD  155
                  453-        *GD  155-8.999997E-02                                                           
                  454-        MAT1    1       1.6E7           .35     .0004141                                
                  455-        MKAERO2 -144.   .001    -144.   .3      -144.   .6      -144.   .9              
                  456-        MKAERO2 -144.   1.2     -144.   1.5     -144.   .15                             
                  457-        MKAERO2 -108.   .001    -108.   .3      -108.   .6      -108.   .9              
                  458-        MKAERO2 -108.   1.2     -108.   1.5     -108.   .15                             
                  459-        MKAERO2 -72.    .001    -72.    .3      -72.    .6      -72.    .9              
                  460-        MKAERO2 -72.    1.2     -72.    1.5     -72.    .15                             
                  461-        MKAERO2 -36.    .001    -36.    .3      -36.    .6      -36.    .9              
                  462-        MKAERO2 -36.    1.2     -36.    1.5     -36.    .15                             
                  463-        MKAERO2 0.0     .001    0.0     .3      0.0     .6      0.0     .9              
                  464-        MKAERO2 0.0     1.2     0.0     1.5     0.0     .15                             
                  465-        MKAERO2 36.     .001    36.     .3      36.     .6      36.     .9              
                  466-        MKAERO2 36.     1.2     36.     1.5     36.0    .15                             
                  467-        MKAERO2 72.     .001    72.     .3      72.     .6      72.     .9              
                  468-        MKAERO2 72.     1.2     72.     1.5     72.0    .15                             
                  469-        MKAERO2 108.    .001    108.    .3      108.    .6      108.    .9              
                  470-        MKAERO2 108.    1.2     108.    1.5     108.    .15                             
1     MODAL FLUTTER ANALYSIS OF AN ADVANCED TURBOPROP                       /    95 SUN SOLARIS NASTRAN    / MAY 18, 95 / PAGE    17
      NASTRAN TEST PROBLEM NO. T09-06-1A                                                                                            

      10 BLADES, 6800 RPM, .70 TUNNEL MACH NO.                                                                                      

                                                  S O R T E D   B U L K    D A T A    E C H O                                       
                     CARD                                                                                                           
                     COUNT        ---1--- +++2+++ ---3--- +++4+++ ---5--- +++6+++ ---7--- +++8+++ ---9--- +++10+++                  
                  471-        MKAERO2 144.    .001    144.    .3      144.    .6      144.    .9              
                  472-        MKAERO2 144.    1.2     144.    1.5     144.    .15                             
                  473-        MKAERO2 180.    .001    180.    .3      180.    .6      180.    .9              
                  474-        MKAERO2 180.    1.2     180.    1.5     180.    .15                             
                  475-        PARAM   CTYPE   ROT                                                             
                  476-        PARAM   IREF    6                                                               
                  477-        PARAM   KINDEX  0                                                               
                  478-        PARAM   LMODES  6                                                               
                  479-        PARAM   MAXMACH 0.95                                                            
                  480-        PARAM   MINMACH 1.01                                                            
                  481-        PARAM   MTYPE   COSINE                                                          
                  482-        PARAM   NSEGS   10                                                              
                  483-        PARAM   PRINT   YESB                                                            
                  484-        PQUAD2  1       1       .012                                                    
                  485-        PQUAD2  2       1       .024                                                    
                  486-        PQUAD2  3       1       .032                                                    
                  487-        PQUAD2  4       1       .036                                                    
                  488-        PQUAD2  5       1       .030                                                    
                  489-        PQUAD2  6       1       .018                                                    
                  490-        PQUAD2  7       1       .014                                                    
                  491-        PQUAD2  8       1       .028                                                    
                  492-        PQUAD2  9       1       .037                                                    
                  493-        PQUAD2  10      1       .043                                                    
                  494-        PQUAD2  11      1       .036                                                    
                  495-        PQUAD2  12      1       .022                                                    
                  496-        PQUAD2  13      1       .016                                                    
                  497-        PQUAD2  14      1       .032                                                    
                  498-        PQUAD2  15      1       .048                                                    
                  499-        PQUAD2  16      1       .051                                                    
                  500-        PQUAD2  17      1       .042                                                    
                  501-        PQUAD2  18      1       .023                                                    
                  502-        PQUAD2  19      1       .018                                                    
                  503-        PQUAD2  20      1       .034                                                    
                  504-        PQUAD2  21      1       .053                                                    
                  505-        PQUAD2  22      1       .058                                                    
                  506-        PQUAD2  23      1       .046                                                    
                  507-        PQUAD2  24      1       .025                                                    
                  508-        PQUAD2  25      1       .021                                                    
                  509-        PQUAD2  26      1       .042                                                    
                  510-        PQUAD2  27      1       .061                                                    
                  511-        PQUAD2  28      1       .066                                                    
                  512-        PQUAD2  29      1       .051                                                    
                  513-        PQUAD2  30      1       .027                                                    
                  514-        PQUAD2  31      1       .024                                                    
                  515-        PQUAD2  32      1       .049                                                    
                  516-        PQUAD2  33      1       .070                                                    
                  517-        PQUAD2  34      1       .073                                                    
1     MODAL FLUTTER ANALYSIS OF AN ADVANCED TURBOPROP                       /    95 SUN SOLARIS NASTRAN    / MAY 18, 95 / PAGE    18
      NASTRAN TEST PROBLEM NO. T09-06-1A                                                                                            

      10 BLADES, 6800 RPM, .70 TUNNEL MACH NO.                                                                                      

                                                  S O R T E D   B U L K    D A T A    E C H O                                       
                     CARD                                                                                                           
                     COUNT        ---1--- +++2+++ ---3--- +++4+++ ---5--- +++6+++ ---7--- +++8+++ ---9--- +++10+++                  
                  518-        PQUAD2  35      1       .057                                                    
                  519-        PQUAD2  36      1       .030                                                    
                  520-        PQUAD2  37      1       .028                                                    
                  521-        PQUAD2  38      1       .054                                                    
                  522-        PQUAD2  39      1       .078                                                    
                  523-        PQUAD2  40      1       .082                                                    
                  524-        PQUAD2  41      1       .065                                                    
                  525-        PQUAD2  42      1       .035                                                    
                  526-        PQUAD2  43      1       .031                                                    
                  527-        PQUAD2  44      1       .061                                                    
                  528-        PQUAD2  45      1       .088                                                    
                  529-        PQUAD2  46      1       .093                                                    
                  530-        PQUAD2  47      1       .075                                                    
[...]

       KFREQ            1./KFREQ         VELOCITY            DAMPING         FREQUENCY            COMPLEX   EIGENVALUE
        0.1000       1.0000000E+01     6.7709242E+04    -2.4194404E-02     7.4191125E+02    -8.1909241E+02     6.7709242E+04
        0.2000       5.0000000E+00     3.5318387E+04    -3.0507866E-02     7.7398907E+02    -5.3874432E+02     3.5318387E+04
        0.3000       3.3333333E+00     2.4061289E+04    -1.1111176E-02     7.9094116E+02    -1.3367461E+02     2.4061289E+04
        0.6000       1.6666666E+00     1.3841004E+04    -1.0955799E-01     9.0996112E+02    -7.5819629E+02     1.3841004E+04
        0.9000       1.1111112E+00     9.6144072E+03    -3.2583281E-02     9.4813239E+02    -1.5663446E+02     9.6144072E+03
        1.2000       8.3333331E-01     7.2407612E+03    -2.4183104E-02     9.5207135E+02    -8.7552040E+01     7.2407612E+03
        1.5000       6.6666669E-01     5.8015366E+03    -1.6607253E-02     9.5353857E+02    -4.8173794E+01     5.8015366E+03
1     MODAL FLUTTER ANALYSIS OF AN ADVANCED TURBOPROP                       /    95 SUN SOLARIS NASTRAN    / MAY 18, 95 / PAGE    83
      NASTRAN TEST PROBLEM NO. T09-06-1A                                                                                            
0     10 BLADES, 6800 RPM, .70 TUNNEL MACH NO.                                                                                      
0                                                       FLUTTER  SUMMARY

       POINT =   49     SIGMA VALUE =  -72.000    DENSITY RATIO =  1.0000E+00     METHOD = KE  


       KFREQ            1./KFREQ         VELOCITY            DAMPING         FREQUENCY            COMPLEX   EIGENVALUE
        0.1000       1.0000000E+01     1.3189752E+04    -1.6340021E+00     1.4452422E+02    -1.0776041E+04     1.3189752E+04
        0.2000       5.0000000E+00     5.6617065E+03    -5.6884371E-02     1.2407416E+02    -1.6103131E+02     5.6617065E+03
        0.3000       3.3333333E+00     3.6155383E+03    -4.2231567E-02     1.1884974E+02    -7.6344925E+01     3.6155383E+03
        0.6000       1.6666666E+00     1.7627212E+03    -1.9327134E-02     1.1588811E+02    -1.7034174E+01     1.7627212E+03
        0.9000       1.1111112E+00     1.1714983E+03    -1.6396929E-02     1.1552824E+02    -9.6044874E+00     1.1714983E+03
        1.2000       8.3333331E-01     8.7808612E+02    -1.4264142E-02     1.1545756E+02    -6.2625728E+00     8.7808612E+02
        1.5000       6.6666669E-01     7.0309186E+02    -9.0784580E-03     1.1555994E+02    -3.1914949E+00     7.0309186E+02
1     MODAL FLUTTER ANALYSIS OF AN ADVANCED TURBOPROP                       /    95 SUN SOLARIS NASTRAN    / MAY 18, 95 / PAGE    84
      NASTRAN TEST PROBLEM NO. T09-06-1A                                                                                            
0     10 BLADES, 6800 RPM, .70 TUNNEL MACH NO.                                                                                      
0                                                       FLUTTER  SUMMARY

       POINT =   50     SIGMA VALUE =  -72.000    DENSITY RATIO =  1.0000E+00     METHOD = KE  


       KFREQ            1./KFREQ         VELOCITY            DAMPING         FREQUENCY            COMPLEX   EIGENVALUE
        0.1000       1.0000000E+01     1.6086229E+04    -1.6479269E-01     1.7626183E+02    -1.3254465E+03     1.6086229E+04
        0.2000       5.0000000E+00     1.4977309E+04     2.0936607E-01     3.2822205E+02     1.5678701E+03     1.4977309E+04
        0.3000       3.3333333E+00     9.5810059E+03    -4.0443256E-02     3.1494620E+02    -1.9374355E+02     9.5810059E+03
        0.6000       1.6666666E+00     4.6133818E+03    -2.7233260E-02     3.0330157E+02    -6.2818714E+01     4.6133818E+03
        0.9000       1.1111112E+00     3.0445593E+03    -1.5801383E-02     3.0024164E+02    -2.4054123E+01     3.0445593E+03
        1.2000       8.3333331E-01     2.2778215E+03    -1.2448344E-02     2.9950562E+02    -1.4177553E+01     2.2778215E+03
        1.5000       6.6666669E-01     1.8249135E+03    -1.3792669E-02     2.9994217E+02    -1.2585214E+01     1.8249135E+03
1     MODAL FLUTTER ANALYSIS OF AN ADVANCED TURBOPROP                       /    95 SUN SOLARIS NASTRAN    / MAY 18, 95 / PAGE    85
      NASTRAN TEST PROBLEM NO. T09-06-1A                                                                                            
0     10 BLADES, 6800 RPM, .70 TUNNEL MACH NO.                                                                                      
0                                                       FLUTTER  SUMMARY

       POINT =   51     SIGMA VALUE =  -72.000    DENSITY RATIO =  1.0000E+00     METHOD = KE  


       KFREQ            1./KFREQ         VELOCITY            DAMPING         FREQUENCY            COMPLEX   EIGENVALUE
        0.1000       1.0000000E+01     1.6251964E+04     9.3829387E-01     1.7807784E+02     7.6245591E+03     1.6251964E+04
        0.2000       5.0000000E+00     1.5493243E+04    -7.3289806E-01     3.3952856E+02    -5.6774839E+03     1.5493243E+04
        0.3000       3.3333333E+00     1.4636427E+04    -2.2725730E-01     4.8112766E+02    -1.6631174E+03     1.4636427E+04
        0.6000       1.6666666E+00     8.5865439E+03    -3.6593065E-02     5.6451263E+02    -1.5710397E+02     8.5865439E+03
        0.9000       1.1111112E+00     5.7920205E+03    -2.9228112E-02     5.7118475E+02    -8.4644913E+01     5.7920205E+03
        1.2000       8.3333331E-01     4.3765142E+03    -2.7147504E-02     5.7545795E+02    -5.9405716E+01     4.3765142E+03
        1.5000       6.6666669E-01     3.5304473E+03    -1.3414448E-02     5.8026312E+02    -2.3679501E+01     3.5304473E+03
1     MODAL FLUTTER ANALYSIS OF AN ADVANCED TURBOPROP                       /    95 SUN SOLARIS NASTRAN    / MAY 18, 95 / PAGE    86
      NASTRAN TEST PROBLEM NO. T09-06-1A                                                                                            
0     10 BLADES, 6800 RPM, .70 TUNNEL MACH NO.                                                                                      
0                                                       FLUTTER  SUMMARY

       POINT =   52     SIGMA VALUE =  -72.000    DENSITY RATIO =  1.0000E+00     METHOD = KE  


       KFREQ            1./KFREQ         VELOCITY            DAMPING         FREQUENCY            COMPLEX   EIGENVALUE
        0.1000       1.0000000E+01     4.3304164E+04    -4.6969038E-01     4.7449722E+02    -1.0169774E+04     4.3304164E+04
        0.2000       5.0000000E+00     2.8122396E+04    -4.8383367E-01     6.1629175E+02    -6.8032812E+03     2.8122396E+04
        0.3000       3.3333333E+00     2.1119998E+04     1.1239297E-02     6.9425519E+02     1.1868697E+02     2.1119998E+04
        0.6000       1.6666666E+00     1.0034708E+04    -3.1478625E-02     6.5972058E+02    -1.5793941E+02     1.0034708E+04
        0.9000       1.1111112E+00     6.6556528E+03    -1.5919261E-02     6.5635254E+02    -5.2976536E+01     6.6556528E+03
        1.2000       8.3333331E-01     4.9777832E+03    -1.3437344E-02     6.5451746E+02    -3.3444092E+01     4.9777832E+03
        1.5000       6.6666669E-01     3.9867217E+03    -9.5616961E-03     6.5525623E+02    -1.9059910E+01     3.9867217E+03
1     MODAL FLUTTER ANALYSIS OF AN ADVANCED TURBOPROP                       /    95 SUN SOLARIS NASTRAN    / MAY 18, 95 / PAGE    87
      NASTRAN TEST PROBLEM NO. T09-06-1A                                                                                            
0     10 BLADES, 6800 RPM, .70 TUNNEL MACH NO.                                                                                      
0                                                       FLUTTER  SUMMARY

       POINT =   53     SIGMA VALUE =  -72.000    DENSITY RATIO =  1.0000E+00     METHOD = KE  


       KFREQ            1./KFREQ         VELOCITY            DAMPING         FREQUENCY            COMPLEX   EIGENVALUE
        0.1000       1.0000000E+01     4.6541574E+04     2.9133764E-01     5.0997055E+02     6.7796562E+03     4.6541574E+04
        0.2000       5.0000000E+00     2.9746641E+04     1.9824156E-01     6.5188641E+02     2.9485103E+03     2.9746641E+04
        0.3000       3.3333333E+00     2.2361945E+04    -2.7927700E-01     7.3508044E+02    -3.1225884E+03     2.2361945E+04
        0.6000       1.6666666E+00     1.2309744E+04    -1.8668661E-02     8.0929022E+02    -1.1490322E+02     1.2309744E+04
        0.9000       1.1111112E+00     8.1819609E+03    -4.6312856E-03     8.0687061E+02    -1.8946499E+01     8.1819609E+03
        1.2000       8.3333331E-01     6.1303335E+03    -3.6214429E-03     8.0606366E+02    -1.1100327E+01     6.1303335E+03
        1.5000       6.6666669E-01     4.9073179E+03    -3.9248280E-03     8.0656512E+02    -9.6301889E+00     4.9073179E+03
1     MODAL FLUTTER ANALYSIS OF AN ADVANCED TURBOPROP                       /    95 SUN SOLARIS NASTRAN    / MAY 18, 95 / PAGE    88
      NASTRAN TEST PROBLEM NO. T09-06-1A                                                                                            
0     10 BLADES, 6800 RPM, .70 TUNNEL MACH NO.                                                                                      
0                                                       FLUTTER  SUMMARY

       POINT =   54     SIGMA VALUE =  -72.000    DENSITY RATIO =  1.0000E+00     METHOD = KE  


       KFREQ            1./KFREQ         VELOCITY            DAMPING         FREQUENCY            COMPLEX   EIGENVALUE
        0.1000       1.0000000E+01     6.8376383E+04    -3.0201297E-02     7.4922131E+02    -1.0325277E+03     6.8376383E+04
        0.2000       5.0000000E+00     3.5479234E+04    -2.6045924E-02     7.7751404E+02    -4.6204471E+02     3.5479234E+04
        0.3000       3.3333333E+00     2.4138746E+04     4.8814077E-04     7.9348730E+02     5.8915529E+00     2.4138746E+04
        0.6000       1.6666666E+00     1.4070352E+04    -4.7369231E-02     9.2503931E+02    -3.3325085E+02     1.4070352E+04
        0.9000       1.1111112E+00     9.5225283E+03    -3.9256126E-02     9.3907172E+02    -1.8690878E+02     9.5225283E+03
        1.2000       8.3333331E-01     7.2302217E+03    -3.2334395E-02     9.5068555E+02    -1.1689243E+02     7.2302217E+03
        1.5000       6.6666669E-01     5.8219409E+03    -2.1254092E-02     9.5689227E+02    -6.1870033E+01     5.8219409E+03
1     MODAL FLUTTER ANALYSIS OF AN ADVANCED TURBOPROP                       /    95 SUN SOLARIS NASTRAN    / MAY 18, 95 / PAGE    89
      NASTRAN TEST PROBLEM NO. T09-06-1A                                                                                            
0     10 BLADES, 6800 RPM, .70 TUNNEL MACH NO.                                                                                      
0                                                       FLUTTER  SUMMARY

       POINT =   55     SIGMA VALUE =  -36.000    DENSITY RATIO =  1.0000E+00     METHOD = KE  


       KFREQ            1./KFREQ         VELOCITY            DAMPING         FREQUENCY            COMPLEX   EIGENVALUE
        0.1000       1.0000000E+01     1.4347865E+04    -1.6293709E+00     1.5721402E+02    -1.1688997E+04     1.4347865E+04
        0.2000       5.0000000E+00     5.5410112E+03    -4.9495414E-02     1.2142917E+02    -1.3712732E+02     5.5410112E+03
        0.3000       3.3333333E+00     3.5680696E+03    -4.0610567E-02     1.1728935E+02    -7.2450661E+01     3.5680696E+03
        0.6000       1.6666666E+00     1.7619291E+03    -2.4715815E-02     1.1583604E+02    -2.1773756E+01     1.7619291E+03
        0.9000       1.1111112E+00     1.1711841E+03    -1.7439686E-02     1.1549725E+02    -1.0212542E+01     1.1711841E+03
        1.2000       8.3333331E-01     8.7748682E+02    -1.4965629E-02     1.1537876E+02    -6.5660710E+00     8.7748682E+02
        1.5000       6.6666669E-01     7.0263287E+02    -1.5055948E-02     1.1548451E+02    -5.2894020E+00     7.0263287E+02
1     MODAL FLUTTER ANALYSIS OF AN ADVANCED TURBOPROP                       /    95 SUN SOLARIS NASTRAN    / MAY 18, 95 / PAGE    90
      NASTRAN TEST PROBLEM NO. T09-06-1A                                                                                            
0     10 BLADES, 6800 RPM, .70 TUNNEL MACH NO.                                                                                      
0                                                       FLUTTER  SUMMARY

       POINT =   56     SIGMA VALUE =  -36.000    DENSITY RATIO =  1.0000E+00     METHOD = KE  


       KFREQ            1./KFREQ         VELOCITY            DAMPING         FREQUENCY            COMPLEX   EIGENVALUE
        0.1000       1.0000000E+01     1.5187794E+04    -8.9988828E-02     1.6641739E+02    -6.8336591E+02     1.5187794E+04
        0.2000       5.0000000E+00     1.5960100E+04     1.6102764E-01     3.4975955E+02     1.2850085E+03     1.5960100E+04
        0.3000       3.3333333E+00     9.6273711E+03    -7.3432103E-02     3.1647031E+02    -3.5347906E+02     9.6273711E+03
        0.6000       1.6666666E+00     4.5899473E+03    -2.2880731E-02     3.0176089E+02    -5.2510674E+01     4.5899473E+03
        0.9000       1.1111112E+00     3.0414392E+03    -1.5995786E-02     2.9993396E+02    -2.4325106E+01     3.0414392E+03
        1.2000       8.3333331E-01     2.2764275E+03    -1.3380774E-02     2.9932230E+02    -1.5230181E+01     2.2764275E+03
        1.5000       6.6666669E-01     1.8181718E+03    -1.5341978E-02     2.9883411E+02    -1.3947175E+01     1.8181718E+03
1     MODAL FLUTTER ANALYSIS OF AN ADVANCED TURBOPROP                       /    95 SUN SOLARIS NASTRAN    / MAY 18, 95 / PAGE    91
      NASTRAN TEST PROBLEM NO. T09-06-1A                                                                                            
0     10 BLADES, 6800 RPM, .70 TUNNEL MACH NO.                                                                                      
0                                                       FLUTTER  SUMMARY

       POINT =   57     SIGMA VALUE =  -36.000    DENSITY RATIO =  1.0000E+00     METHOD = KE  


       KFREQ            1./KFREQ         VELOCITY            DAMPING         FREQUENCY            COMPLEX   EIGENVALUE
        0.1000       1.0000000E+01     1.7683816E+04     8.4603542E-01     1.9376709E+02     7.4805674E+03     1.7683816E+04
        0.2000       5.0000000E+00     1.6765900E+04    -5.4753590E-01     3.6741840E+02    -4.5899663E+03     1.6765900E+04
        0.3000       3.3333333E+00     1.5402879E+04    -5.1177576E-02     5.0632242E+02    -3.9414099E+02     1.5402879E+04
        0.6000       1.6666666E+00     8.4932998E+03    -4.2817626E-02     5.5838239E+02    -1.8183147E+02     8.4932998E+03
        0.9000       1.1111112E+00     5.7815171E+03    -2.9839585E-02     5.7014893E+02    -8.6259033E+01     5.7815171E+03
        1.2000       8.3333331E-01     4.3666479E+03    -2.6101986E-02     5.7416064E+02    -5.6989090E+01     4.3666479E+03
        1.5000       6.6666669E-01     3.5196643E+03    -2.8117657E-02     5.7849084E+02    -4.9482357E+01     3.5196643E+03
1     MODAL FLUTTER ANALYSIS OF AN ADVANCED TURBOPROP                       /    95 SUN SOLARIS NASTRAN    / MAY 18, 95 / PAGE    92
      NASTRAN TEST PROBLEM NO. T09-06-1A                                                                                            
0     10 BLADES, 6800 RPM, .70 TUNNEL MACH NO.                                                                                      
0                                                       FLUTTER  SUMMARY

       POINT =   58     SIGMA VALUE =  -36.000    DENSITY RATIO =  1.0000E+00     METHOD = KE  


       KFREQ            1./KFREQ         VELOCITY            DAMPING         FREQUENCY            COMPLEX   EIGENVALUE
        0.1000       1.0000000E+01     4.4016301E+04    -5.4822856E-01     4.8230032E+02    -1.2065497E+04     4.4016301E+04
        0.2000       5.0000000E+00     2.9452855E+04    -4.5643884E-01     6.4544824E+02    -6.7217134E+03     2.9452855E+04
        0.3000       3.3333333E+00     2.0755576E+04    -7.8807168E-02     6.8227600E+02    -8.1784412E+02     2.0755576E+04
        0.6000       1.6666666E+00     1.0027076E+04    -2.3372579E-02     6.5921881E+02    -1.1717931E+02     1.0027076E+04
        0.9000       1.1111112E+00     6.6487402E+03    -1.5984330E-02     6.5567084E+02    -5.3137829E+01     6.6487402E+03
        1.2000       8.3333331E-01     4.9774639E+03    -1.3048905E-02     6.5447546E+02    -3.2475227E+01     4.9774639E+03
        1.5000       6.6666669E-01     3.9800903E+03    -1.5516122E-02     6.5416632E+02    -3.0877783E+01     3.9800903E+03
1     MODAL FLUTTER ANALYSIS OF AN ADVANCED TURBOPROP                       /    95 SUN SOLARIS NASTRAN    / MAY 18, 95 / PAGE    93
      NASTRAN TEST PROBLEM NO. T09-06-1A                                                                                            
0     10 BLADES, 6800 RPM, .70 TUNNEL MACH NO.                                                                                      
0                                                       FLUTTER  SUMMARY

       POINT =   59     SIGMA VALUE =  -36.000    DENSITY RATIO =  1.0000E+00     METHOD = KE  


       KFREQ            1./KFREQ         VELOCITY            DAMPING         FREQUENCY            COMPLEX   EIGENVALUE
        0.1000       1.0000000E+01     4.7500137E+04     3.7445065E-01     5.2047375E+02     8.8932285E+03     4.7500137E+04
        0.2000       5.0000000E+00     3.1058381E+04     1.8823546E-01     6.8063269E+02     2.9231443E+03     3.1058381E+04
        0.3000       3.3333333E+00     2.3848641E+04    -1.3160937E-01     7.8395093E+02    -1.5693523E+03     2.3848641E+04
        0.6000       1.6666666E+00     1.2283088E+04    -5.9042601E-03     8.0753772E+02    -3.6261272E+01     1.2283088E+04
        0.9000       1.1111112E+00     8.1742412E+03    -4.0554870E-03     8.0610931E+02    -1.6575264E+01     8.1742412E+03
        1.2000       8.3333331E-01     6.1279658E+03    -3.3681036E-03     8.0575238E+02    -1.0319812E+01     6.1279658E+03
        1.5000       6.6666669E-01     4.9012607E+03    -5.0184606E-03     8.0556958E+02    -1.2298391E+01     4.9012607E+03
1     MODAL FLUTTER ANALYSIS OF AN ADVANCED TURBOPROP                       /    95 SUN SOLARIS NASTRAN    / MAY 18, 95 / PAGE    94
      NASTRAN TEST PROBLEM NO. T09-06-1A                                                                                            
0     10 BLADES, 6800 RPM, .70 TUNNEL MACH NO.                                                                                      
0                                                       FLUTTER  SUMMARY

       POINT =   60     SIGMA VALUE =  -36.000    DENSITY RATIO =  1.0000E+00     METHOD = KE  


       KFREQ            1./KFREQ         VELOCITY            DAMPING         FREQUENCY            COMPLEX   EIGENVALUE
        0.1000       1.0000000E+01     6.9235344E+04    -2.7111808E-02     7.5863324E+02    -9.3854767E+02     6.9235344E+04
        0.2000       5.0000000E+00     3.5668367E+04    -1.1360300E-02     7.8165881E+02    -2.0260167E+02     3.5668367E+04
        0.3000       3.3333333E+00     2.4951115E+04     5.3172372E-02     8.2019147E+02     6.6335498E+02     2.4951115E+04
        0.6000       1.6666666E+00     1.3800661E+04    -5.3184744E-02     9.0730890E+02    -3.6699231E+02     1.3800661E+04
        0.9000       1.1111112E+00     9.4979141E+03    -4.0030856E-02     9.3664435E+02    -1.9010481E+02     9.4979141E+03
        1.2000       8.3333331E-01     7.2023413E+03    -3.4432013E-02     9.4701953E+02    -1.2399555E+02     7.2023413E+03
        1.5000       6.6666669E-01     5.8016953E+03    -2.7782625E-02     9.5356470E+02    -8.0593163E+01     5.8016953E+03




                                        * * * END OF JOB * * *
1
 JOB TITLE =  MODAL FLUTTER ANALYSIS OF AN ADVANCED TURBOPROP                    
 DATE:  5/18/95
 END TIME: 10:46:55
 TOTAL WALL CLOCK TIME      4 SEC.
 
