





                                  ****
                                *      *
                               *        *
                               *  N A S T R A N
                               *        *
                                *      *
                                  ****


                             SUN COMPUTER SYSTEMS    
                                SOLARIS VERSION

                          SYSTEM RELEASE -  1995 ED.

                                DISTRIBUTED BY

         COMPUTER SOFTWARE MANAGEMENT AND INFORMATION CENTER (COSMIC)
                 UNIVERSITY OF GEORGIA, ATHENS, GEORGIA 30602
                 PHONE: (706)542-3265      FAX: (706)542-4807
1                                                                           /    95 SUN SOLARIS NASTRAN    / MAY 18, 95 / PAGE     2
                                                                                                                                    
0                                                                                                                                   
                                                                                                         
                                                                                                         
                         INSTALLATION CENTER USER INFORMATION GIVEN IN THIS SECTION                      
                                                                                                         
                                     *********************************************                       
                                     *                                           *                       
                                     *  PLEASE READ THE COMMENT IN DEMO PROBLEM  *                       
                                     *  D01002A ABOUT SYSTEM TIMING CONSTANTS    *                       
                                     *                                           *                       
                                     *********************************************                       
                                                                                                         
                         ===X=    TOP OF PAGE REQUEST IF 'X' IS REPLACED BY '='                          
                                                                                                         
1                                                                           /    95 SUN SOLARIS NASTRAN    / MAY 18, 95 / PAGE     3
                                                                                                                                    
0                                                                                                                                   
0*** USER INFORMATION MESSAGE 225, GINO TIME CONSTANTS ARE BEING COMPUTED
     (SEE NASINFO FILE FOR ELIMINATION OF THESE COMPUTATIONS)
1                                                                           /    95 SUN SOLARIS NASTRAN    / MAY 18, 95 / PAGE     4
                                                                                                                                    
0        N A S T R A N    E X E C U T I V E    C O N T R O L    D E C K    E C H O                                                  
0                                                                                                                                   
                                                                                                                                    
                                                                                                                                    
     ID    T09071A,NASTRAN                                                           
     APP   DISP                                                                      
     TIME  40                                                                        
     SOL   9                                                                         
     DIAG  14                                                                        
0*** $   ... READFILE FROM-  COSDBCL                                                 
     $        COSDBCL.ALT                                                            
     $                                                                               
     $        DMAP ALTER PACKAGE FOR                                                 
     $        DYNAMIC DELAMINATION BUCKLING IN COMPOSITE LAMINATES UNDER             
     $        IMPACK LOADING: COMPUTATIONAL SIMULATION                               
     $        FROM PAPER OF THE SAME TITLE BY J. E. GRADY et al                      
     $        NASA TECHNICAL MEMORANDUM 100192, 1987, CLEWIS RESEARCH CENTER,        
     $        AND ALSO A SIMILAR PAPER BY R. A. AIELLO AND J. E. GRADY,              
     $        NASA CONFERENCE PUBLICATION 3029, 1989 (17TH NASTRAN USERS'S           
     $        COLLOQUIUM, PP. 187-200)                                               
     $                                                                               
     $        VAX AND UNIX USER: MAKE SURE YOUR FILE EXTENSION LIMIT IS SET          
     $        TO 420 BEFORE RUNNING THIS DEMO PROBLEM.                               
     $                                                                               
     $ ALTER 146     $ 91 COSMIC/NASTRAN RF 9,  FOLLOWING LABEL  P2                  
     INSERT XYTRAN(2),-1 $                                                           
     $                                                                               
     PARAML   UPV//*TRAILER*/1/V,N,NOCUPV $                                          
     COPY     TIP1/CLUSI/0 $                                                         
     COPY     TIP1/BUBLI/0 $                                                         
     PARAM    //*SUB*/SHIFT/NOCUPV/ 1 $                                              
     LABEL    BUBTOP $                                                               
     FILE     BUBLI=SAVE/CLUSI=SAVE $                                                
     PARTN    BUBLI,,BAS1/DUMMY,,,/7 $                                               
     MERGE    DUMMY,,,,,TIP1/BUBLJ/7 $                                               
     ADD      CLUSI,BUBLJ/CLUSJ/ $                                                   
     SWITCH   BUBLJ,BUBLI//-1 $                                                      
     SWITCH   CLUSJ,CLUSI//-1 $                                                      
     REPT     BUBTOP,SHIFT $                                                         
     PARTN    TIP1,,CLUSJ/,MNTRI,,/7 $                                               
     PARTN    BUBLJ,,CLUSJ/,BOOTI,,/7 $                                              
     COPY     MNTRI/MNTRJ/0 $                                                        
     TA1      ECT,EPT,BGPDT,SIL,GPTT,CSTM,,EQEXIN/X1,X2,X3,ECPT,GPCT,,,/             
              LUSET/NOSIMP/0/NOGENL/GENEL $                                          
     DPD      DYNAMICS,GPL,SIL,USET/GPLD,SILD,USETD,,,,,,,EED,EQDYN/V,N,             
              LUSET/V,N,LUSETD/V,N,NOTFL/V,N,NODLT/V,N,NOPSDL/V,N,NOFRL/             
              V,N,NONLFT/V,N,NOTRL/S,N,NOEED/C,N,123/V,N,NOUE $                      
     COND     ERROR5,NOEED $                                                         
     PARAM    //*NOP*/V,N,COLNUM=1 $                                                 
     LABEL    RAALOOP $                                                              
1                                                                           /    95 SUN SOLARIS NASTRAN    / MAY 18, 95 / PAGE     5
                                                                                                                                    
0        N A S T R A N    E X E C U T I V E    C O N T R O L    D E C K    E C H O                                                  
0                                                                                                                                   
                                                                                                                                    
                                                                                                                                    
     PARAM    //*ADD*/COLNUM/COLNUM/3 $                                              
     PARAM    //*LE*/V,N,GETOUT/NOCUPV/COLNUM $                                      
     COND     QUITRAA,GETOUT $                                                       
     LABEL    CORTOP $                                                               
     PARTN    MNTRJ,,BOOTI/DUM11,,,/7 $                                              
     MERGE    DUM11,,,,,MNTRI/MNTRJ/7 $                                              
     REPT     CORTOP, 2  $                                                           
     PARTN    UPV,MNTRJ,/,,COLUPV,/1  $                                              
     DSMG1    CASECC,GPTT,SIL,EDT,COLUPV,CSTM,MPT,ECPT,GPCT,DIT/                     
              KDGG/DSCOSET $                                                         
     EQUIV    KDGG,KDNN/MPCF2 $                                                      
     COND     LBL2D,MPCF2 $                                                          
     MCE2     USET,GM,KDGG,,,/KDNN,,, $                                              
     LABEL    LBL2D $                                                                
     EQUIV    KDNN,KDFF/SINGLE $                                                     
     COND     LBL3D,SINGLE $                                                         
     SCE1     USET,KDNN,,,/KDFF,KDFS,,,, $                                           
     LABEL    LBL3D $                                                                
     EQUIV    KDFF,KDAA/OMIT $                                                       
     COND     LBL5D,OMIT $                                                           
     SMP2     USET,GO,KDFF/KDAA $                                                    
     LABEL    LBL5D $                                                                
     ADD      KDAA,/KDAAM/C,N,(-1.0,0.0)/C,N,(0.0,0.0) $                             
     READ     KAA,KDAAM,,,EED,USET,CASECC/LAMA,PHIA,MI,OEIGS/C,N,BUCKLING/           
              S,N,NEIGV/C,N,2 $                                                      
     COND     ERROR4,NEIGV $                                                         
     PARAML   LAMA//*TABLE1*/2/3/V,N,EIGV $                                          
     PRTPARM  //0/*EIGV*   $                                                         
     $ OFP    OEIGS,LAMA,,,,//S,N,CARDNO $                                           
     OFP      LAMA,,,,,//S,N,CARDNO $                                                
     SDR1     USET,,PHIA,,,GO,GM,,KFS,,/PHIG,,BQG/C,N,1/C,N,BKL1 $                   
     SDR2     CASECC,CSTM,MPT,DIT,EQEXIN,SIL,,,BGPDT,LAMA,BQG,PHIG,EST,,,/,          
              OBQG1,OPHIG,OBES1,OBEF1,PPHIG,,/C,N,BKL1 $                             
     $ OFP    OPHIG,OBQG1,OBEF1,OBES1,,//S,N,CARDNO $                                
     COND     P3,JUMPPLOT $                                                          
     PLOT     PLTPAR,GPSETS,ELSETS,CASECC,BGPDT,EQEXIN,SIL,,PPHIG,GPECT,             
              OBES1,,/PLOTX3/V,N,NSIL/V,N,LUSET/V,N,JUMPPLOT/V,N,PLTFLG/             
              S,N,PFILE   $                                                          
     PRTMSG   PLOTX3// $                                                             
     LABEL    P3 $                                                                   
     REPT     RAALOOP,1000 $                                                         
     JUMP     QUITRAA $                                                              
     LABEL    ERROR5 $                                                               
     PRTPARM  //C,N,-3/C,N,BUCKLING $                                                
     JUMP     QUITRAA $                                                              
     LABEL    ERROR4 $                                                               
     PRTPARM  //C,N,-4/C,N,BUCKLING $                                                
1                                                                           /    95 SUN SOLARIS NASTRAN    / MAY 18, 95 / PAGE     6
                                                                                                                                    
0        N A S T R A N    E X E C U T I V E    C O N T R O L    D E C K    E C H O                                                  
0                                                                                                                                   
                                                                                                                                    
                                                                                                                                    
     LABEL    QUITRAA $                                                              
     JUMP     FINIS $                                                                
     ENDALTER                                                                        
0*** $   END READFILE                                                                
     CEND                                                                            


0*** USER INFORMATION MESSAGE, TURN DIAG 48 ON FOR NASTRAN RELEASE NEWS, DIAG DEFINITION, NEW DMAP
         MODULES AND NEW BULKDATA CARDS INFORMATION
1     DYNAMIC DELAMINATION BUCKLING IN COMPOSITE LAMINATES UDER             /    95 SUN SOLARIS NASTRAN    / MAY 18, 95 / PAGE     7
      NASTRAN TEST PROBLEM NO. T09-07-1A                                                                                            
0     A DYNAMIC TRANSIENT RESPONSE ANALYSIS - IMPACT LOADING                                                                        
0                                        C A S E    C O N T R O L   D E C K   E C H O                                               
                 CARD                                                                                                               
                 COUNT                                                                                                              
                  1      TITLE    = DYNAMIC DELAMINATION BUCKLING IN COMPOSITE LAMINATES UDER            
                  2      SUBTITLE = NASTRAN TEST PROBLEM NO. T09-07-1A                                   
                  3      LABEL    = A DYNAMIC TRANSIENT RESPONSE ANALYSIS - IMPACT LOADING               
                  4        DISP   = ALL                                                                  
                  5        SPC    = 4                                                                    
                  6      SUBCASE 1                                                                       
                  7        DLOAD  = 4                                                                    
                  8        TSTEP  = 7                                                                    
                  9        STRESS = ALL                                                                  
                 10      SUBCASE 2                                                                       
                 11        METHOD = 25                                                                   
                 12      BEGIN BULK                                                                      


                        (NO. OF UNSORTED BULK DATA CARDS READ =    19, INCLUDING   0 COMMENT CARDS)
0*** USER INFORMATION MESSAGE 207, BULK DATA DECK IS NOT SORTED. NASTRAN WILL RE-ORDER THE INPUT DECK.
1     DYNAMIC DELAMINATION BUCKLING IN COMPOSITE LAMINATES UDER             /    95 SUN SOLARIS NASTRAN    / MAY 18, 95 / PAGE     8
      NASTRAN TEST PROBLEM NO. T09-07-1A                                                                                            
0     A DYNAMIC TRANSIENT RESPONSE ANALYSIS - IMPACT LOADING                                                                        
0                                                 S O R T E D   B U L K    D A T A    E C H O                                       
                     CARD                                                                                                           
                     COUNT        ---1--- +++2+++ ---3--- +++4+++ ---5--- +++6+++ ---7--- +++8+++ ---9--- +++10+++                  
                    1-        CBAR    1       1       1       2       0.      0.      1.0     1               
                    2-        CBAR    2       1       2       3       0.      0.      1.0     1               
                    3-        CBAR    3       1       3       4       0.      0.      1.0     1               
                    4-        CBAR    4       1       4       5       0.      0.      1.0     1               
                    5-        CBAR    5       1       5       6       0.      0.      1.0     1               
                    6-        CBAR    6       1       6       7       0.      0.      1.0     1               
                    7-        CBAR    7       1       7       8       0.      0.      1.0     1               
                    8-        CBAR    8       1       8       9       0.      0.      1.0     1               
                    9-        CBAR    9       1       9       10      0.      0.      1.0     1               
                   10-        CBAR    10      1       10      11      0.      0.      1.0     1               
                   11-        DAREA   8       1       2       +1.0                                            
                   12-        DMI     BAS1    0       2       1       1               1000    1               
                   13-        DMI     BAS1    1       1000    1.0                                             
                   14-        DMI     TIP1    0       2       1       1               1000    1               
                   15-        DMI     TIP1    1       1       1.0                                             
                   16-        EIGB    25      INV     0.01    1.0     2                               +C0N0001
                   17-        +C0N0001MAX                                                                     
                   18-        GRID    1               0.0     0.0     0.0                                     
                   19-        GRID    2               0.0     10.     0.0                                     
                   20-        GRID    3               0.0     20.     0.0                                     
                   21-        GRID    4               0.0     30.     0.0                                     
                   22-        GRID    5               0.0     40.     0.0                                     
                   23-        GRID    6               0.0     50.     0.0                                     
                   24-        GRID    7               0.0     60.     0.0                                     
                   25-        GRID    8               0.0     70.     0.0                                     
                   26-        GRID    9               0.0     80.     0.0                                     
                   27-        GRID    10              0.0     90.     0.0                                     
                   28-        GRID    11              0.0     100.    0.0                                     
                   29-        MAT1    11      10.0+6  16.5+6          2.59-4                                  
                   30-        PBAR    1       11      .785    .049    .049    .098                            
                   31-        SPC     4       11      123456                                                  
                   32-        TABLED1 4                                                               +S4     
                   33-        +S4     0.0     0.0     25.E-6  120.9   1.0     120.9   ENDT                    
                   34-        TLOAD1  4       8       0               4                                       
                   35-        TSTEP   6       20      0.0002  1                                               
                   36-        TSTEP   7       200     12.5-6  4                                               
                              ENDDATA
1     DYNAMIC DELAMINATION BUCKLING IN COMPOSITE LAMINATES UDER             /    95 SUN SOLARIS NASTRAN    / MAY 18, 95 / PAGE     9
      NASTRAN TEST PROBLEM NO. T09-07-1A                                                                                            
0     A DYNAMIC TRANSIENT RESPONSE ANALYSIS - IMPACT LOADING                                                                        
0         COSMIC / NASTRAN DMAP COMPILER - SOURCE LISTING                                                                           
                                                                                                                                    
                                                                                                                                    
0  OPTIONS IN EFFECT GO      ERR=2   LIST    NODECK  NOREF   NOOSCAR 
   -----------------


       1  BEGIN    DISP 09 - DIRECT TRANSIENT RESPONSE ANALYSIS - APR. 1995 $     

       2  PRECHK   ALL $                                                          

       3  FILE     UDVT=APPEND/TOL=APPEND/RLODDISP=APPEND $                       

       4  PARAM    //*MPY*/CARDNO/0/0 $                                           

       5  GP1      GEOM1,GEOM2,/GPL,EQEXIN,GPDT,CSTM,BGPDT,SIL/S,N,LUSET/         
                   S,N,NOGPDT/ALWAYS=-1 $                                         

       6  ANISOP   GEOM1,EPT,BGPDT,EQEXIN,MPT/MPTA/S,N,ISOP $                     

       7  EQUIV    MPTA,MPT/ISOP $                                                

       8  PLTTRAN  BGPDT,SIL/BGPDP,SIP/LUSET/S,N,LUSEP $                          

       9  PURGE    USET,GM,GO,KAA,BAA,MAA,K4AA,PST,KFS,QP,EST,ECT,PLTSETX,PLTPAR, 
                   GPSETS,ELSETS/NOGPDT $                                         

      10  COND     LBL5,NOGPDT $                                                  

      11  GP2      GEOM2,EQEXIN/ECT $                                             

      12  PARAML   PCDB//*PRES*////JUMPPLOT $                                     

      13  PURGE    PLTSETX,PLTPAR,GPSETS,ELSETS/JUMPPLOT $                        

      14  COND     P1,JUMPPLOT $                                                  

      15  PLTSET   PCDB,EQEXIN,ECT,EPT/PLTSETX,PLTPAR,GPSETS,ELSETS/S,N,NSIL/     
                   S,N,JUMPPLOT $                                                 

      16  PRTMSG   PLTSETX// $                                                    

      17  PARAM    //*MPY*/PLTFLG/1/1 $                                           

      18  PARAM    //*MPY*/PFILE/0/0 $                                            

      19  COND     P1,JUMPPLOT $                                                  

      20  PLOT     PLTPAR,GPSETS,ELSETS,CASECC,BGPDT,EQEXIN,SIL,,ECT,,,,/PLOTX1/  
1     DYNAMIC DELAMINATION BUCKLING IN COMPOSITE LAMINATES UDER             /    95 SUN SOLARIS NASTRAN    / MAY 18, 95 / PAGE    10
      NASTRAN TEST PROBLEM NO. T09-07-1A                                                                                            
0     A DYNAMIC TRANSIENT RESPONSE ANALYSIS - IMPACT LOADING                                                                        
0         COSMIC / NASTRAN DMAP COMPILER - SOURCE LISTING                                                                           
                                                                                                                                    
                                                                                                                                    
                   NSIL/LUSET/S,N,JUMPPLOT/S,N,PLTFLG/S,N,PFILE $                 

      21  PRTMSG   PLOTX1// $                                                     

      22  LABEL    P1 $                                                           

      23  GP3      GEOM3,EQEXIN,GEOM2/SLT,GPTT/NOGRAV $                           

      24  TA1      ECT,EPT,BGPDT,SIL,GPTT,CSTM,MPT,EQEXIN/EST,GEI,GPECT,,,MPTX,   
                   PCOMPS,EPTX/LUSET/S,N,NOSIMP=-1/1/S,N,NOGENL=-1/GENEL/         
                   S,N,COMPS                                                      

      25  EQUIV    MPTX,MPT/COMPS/EPTX,EPT/COMPS $                                

      26  PURGE    K4GG,MGG,BGG,                                                  
                   K4NN,K4FF,K4AA,MNN,MFF,MAA,BNN,BFF,BAA,KGGX/NOSIMP $           

      27  COND     LBL1,NOSIMP $                                                  

      28  PARAM    //*ADD*/NOKGGX/1/0 $                                           

      29  PARAM    //*ADD*/NOMGG/1/0 $                                            

      30  PARAM    //*ADD*/NOBGG=-1/1/0 $                                         

      31  PARAM    //*ADD*/NOK4GG/1/0 $                                           

      32  EMG      EST,CSTM,MPT,DIT,GEOM2,/KELM,KDICT,MELM,MDICT,BELM,BDICT,/     
                   S,N,NOKGGX/S,N,NOMGG/S,N,NOBGG/S,N,NOK4GG//C,Y,COUPMASS/       
                   C,Y,CPBAR/C,Y,CPROD/C,Y,CPQUAD1/C,Y,CPQUAD2/C,Y,CPTRIA1/       
                   C,Y,CPTRIA2/C,Y,CPTUBE/C,Y,CPQDPLT/C,Y,CPTRPLT/C,Y,CPTRBSC/    
                   C,Y,VOLUME/C,Y,SURFACE $                                       

      33  PURGE    KGGX/NOKGGX/MGG/NOMGG $                                        

      34  COND     LBLKGGX,NOKGGX $                                               

      35  EMA      GPECT,KDICT,KELM/KGGX $                                        

      36  LABEL    LBLKGGX $                                                      

      37  COND     LBLMGG,NOMGG $                                                 

      38  EMA      GPECT,MDICT,MELM/MGG/-1/C,Y,WTMASS=1.0 $                       

      39  PURGE    MDICT,MELM/ALWAYS $                                            

      40  LABEL    LBLMGG $                                                       
1     DYNAMIC DELAMINATION BUCKLING IN COMPOSITE LAMINATES UDER             /    95 SUN SOLARIS NASTRAN    / MAY 18, 95 / PAGE    11
      NASTRAN TEST PROBLEM NO. T09-07-1A                                                                                            

      A DYNAMIC TRANSIENT RESPONSE ANALYSIS - IMPACT LOADING                                                                        

          COSMIC / NASTRAN DMAP COMPILER - SOURCE LISTING                                                                           
                                                                                                                                    
                                                                                                                                    

      41  COND     LBLBGG,NOBGG $                                                 

      42  EMA      GPECT,BDICT,BELM/BGG $                                         

      43  PURGE    BDICT,BELM/ALWAYS $                                            

      44  LABEL    LBLBGG $                                                       

      45  COND     LBLK4GG,NOK4GG $                                               

      46  EMA      GPECT,KDICT,KELM/K4GG/NOK4GG $                                 

      47  LABEL    LBLK4GG $                                                      

      48  PURGE    KDICT,KELM/ALWAYS $                                            

      49  PURGE    MNN,MFF,MAA/NOMGG $                                            

      50  PURGE    BNN,BFF,BAA/NOBGG $                                            

      51  COND     LBL1,GRDPNT $                                                  

      52  COND     ERROR3,NOMGG $                                                 

      53  GPWG     BGPDP,CSTM,EQEXIN,MGG/OGPWG/V,Y,GRDPNT=-1/C,Y,WTMASS $         

      54  OFP      OGPWG,,,,,//S,N,CARDNO $                                       

      55  LABEL    LBL1  $                                                        

      56  EQUIV    KGGX,KGG/NOGENL $                                              

      57  COND     LBL11,NOGENL $                                                 

      58  SMA3     GEI,KGGX/KGG/LUSET/NOGENL/NOSIMP $                             

      59  LABEL    LBL11 $                                                        

      60  GPSTGEN  KGG,SIL/GPST $                                                 

      61  PARAM    //*MPY*/NSKIP/0/0 $                                            

      62  GP4      CASECC,GEOM4,EQEXIN,GPDT,BGPDT,CSTM,GPST/RG,,USET,             
                   ASET,OGPST/LUSET/S,N,MPCF1/S,N,MPCF2/S,N,SINGLE/S,N,OMIT/      
                   S,N,REACT/S,N,NSKIP/S,N,REPEAT/S,N,NOSET/S,N,NOL/S,N,NOA/      
1     DYNAMIC DELAMINATION BUCKLING IN COMPOSITE LAMINATES UDER             /    95 SUN SOLARIS NASTRAN    / MAY 18, 95 / PAGE    12
      NASTRAN TEST PROBLEM NO. T09-07-1A                                                                                            
0     A DYNAMIC TRANSIENT RESPONSE ANALYSIS - IMPACT LOADING                                                                        
0         COSMIC / NASTRAN DMAP COMPILER - SOURCE LISTING                                                                           
                                                                                                                                    
                                                                                                                                    
                   C,Y,ASETOUT/C,Y,AUTOSPC $                                      

      63  OFP      OGPST,,,,,//S,N,CARDNO $                                       

      64  PURGE    GM,GMD/MPCF1/GO,GOD/OMIT/KFS,PST,QP/SINGLE $                   

      65  EQUIV    KGG,KNN/MPCF1/MGG,MNN/MPCF1/ BGG,BNN/MPCF1/K4GG,K4NN/MPCF1 $   

      66  COND     LBL2,MPCF1 $                                                   

      67  MCE1     USET,RG/GM $                                                   

      68  MCE2     USET,GM,KGG,MGG,BGG,K4GG/KNN,MNN,BNN,K4NN  $                   

      69  LABEL    LBL2 $                                                         

      70  EQUIV    KNN,KFF/SINGLE/MNN,MFF/SINGLE/BNN,BFF/SINGLE/K4NN,K4FF/SINGLE $

      71  COND     LBL3,SINGLE $                                                  

      72  SCE1     USET,KNN,MNN,BNN,K4NN/KFF,KFS,   ,MFF,BFF,K4FF $               

      73  LABEL    LBL3 $                                                         

      74  EQUIV    KFF,KAA/OMIT $                                                 

      75  EQUIV    MFF,MAA/OMIT $                                                 

      76  EQUIV    BFF,BAA/OMIT $                                                 

      77  EQUIV    K4FF,K4AA/OMIT $                                               

      78  COND     LBL5,OMIT $                                                    

      79  SMP1     USET,KFF,,,/GO,KAA,KOO,LOO,,,,, $                              

      80  COND     LBLM,NOMGG $                                                   

      81  SMP2     USET,GO,MFF/MAA $                                              

      82  LABEL    LBLM $                                                         

      83  COND     LBLB,NOBGG $                                                   

      84  SMP2     USET,GO,BFF/BAA $                                              

      85  LABEL    LBLB $                                                         
1     DYNAMIC DELAMINATION BUCKLING IN COMPOSITE LAMINATES UDER             /    95 SUN SOLARIS NASTRAN    / MAY 18, 95 / PAGE    13
      NASTRAN TEST PROBLEM NO. T09-07-1A                                                                                            

      A DYNAMIC TRANSIENT RESPONSE ANALYSIS - IMPACT LOADING                                                                        

          COSMIC / NASTRAN DMAP COMPILER - SOURCE LISTING                                                                           
                                                                                                                                    
                                                                                                                                    

      86  COND     LBL5,NOK4GG $                                                  

      87  SMP2     USET,GO,K4FF/K4AA $                                            

      88  LABEL    LBL5 $                                                         

      89  DPD      DYNAMICS,GPL,SIL,USET/GPLD,SILD,USETD,TFPOOL,DLT,,,NLFT,TRL,,  
                   EQDYN/LUSET/S,N,LUSETD/NOTFL/S,N,NODLT/NOPSDL/                 
                   NOFRL/S,N,NONLFT/S,N,NOTRL/NOEED//S,N,NOUE $                   

      90  COND     ERROR1,NOTRL $                                                 

      91  PURGE    PNLD/NONLFT$                                                   

      92  EQUIV    GO,GOD/NOUE/GM,GMD/NOUE  $                                     

      93  BMG      MATPOOL,BGPDT,EQEXIN,CSTM/BDPOOL/S,N,NOKBFL/S,N,NOABFL/        
                   S,N,MFACT $                                                    

      94  PARAM    //*AND*/NOFL/NOABFL/NOKBFL $                                   

      95  PURGE    KBFL/NOKBFL/ ABFL/NOABFL $                                     

      96  COND     LBLFL3,NOFL $                                                  

      97  MTRXIN,  ,BDPOOL,EQDYN,,/ABFL,KBFL,/LUSETD/S,N,NOABFL/S,N,NOKBFL/       
                   0 $                                                            

      98  LABEL    LBLFL3 $                                                       

      99  MTRXIN   CASECC,MATPOOL,EQDYN,,TFPOOL/K2DPP,M2DPP,B2PP/LUSETD/S,N,      
                   NOK2DPP/S,N,NOM2DPP/S,N,NOB2PP $                               

     100  PARAM    //*AND*/NOM2PP/NOABFL/NOM2DPP $                                

     101  PARAM    //*AND*/NOK2PP/NOFL  /NOK2DPP $                                

     102  EQUIV    K2DPP,K2PP/NOFL/M2DPP,M2PP/NOABFL $                            

     103  COND     LBLFL2,NOFL $                                                  

     104  ADD5     ABFL,KBFL,K2DPP,,/K2PP/(-1.0,0.0) $                            

     105  COND     LBLFL2,NOABFL $                                                

     106  TRNSP    ABFL/ABFLT $                                                   
1     DYNAMIC DELAMINATION BUCKLING IN COMPOSITE LAMINATES UDER             /    95 SUN SOLARIS NASTRAN    / MAY 18, 95 / PAGE    14
      NASTRAN TEST PROBLEM NO. T09-07-1A                                                                                            

      A DYNAMIC TRANSIENT RESPONSE ANALYSIS - IMPACT LOADING                                                                        

          COSMIC / NASTRAN DMAP COMPILER - SOURCE LISTING                                                                           
                                                                                                                                    
                                                                                                                                    

     107  ADD      ABFLT,M2DPP/M2PP/MFACT/(1.0,0.0) $                             

     108  LABEL    LBLFL2 $                                                       

     109  PARAM    //*AND*/KDEKA/NOUE/NOK2PP $                                    

     110  PARAM    //*AND*/MDEMA/NOUE/NOM2PP $                                    

     111  PARAM    //*AND*/KDEK2/NOGENL/NOSIMP $                                  

     112  PURGE    K2DD/NOK2PP/M2DD/NOM2PP/B2DD/NOB2PP $                          

     113  EQUIV    M2PP,M2DD/NOA/B2PP,B2DD/NOA/K2PP,K2DD/NOA/MAA,MDD/MDEMA/       
                   KAA,KDD/KDEKA $                                                

     114  COND     LBL16,NOGPDT $                                                 

     115  GKAD     USETD,GM,GO,KAA,BAA,MAA,K4AA,K2PP,M2PP,B2PP/KDD,BDD,MDD,GMD,   
                   GOD,K2DD,M2DD,B2DD/*TRANRESP*/*DISP*/*DIRECT*/C,Y,G=0.0/       
                   C,Y,W3=0.0/C,Y,W4=0.0/NOK2PP/NOM2PP/NOB2PP/                    
                   MPCF1/SINGLE/OMIT/NOUE/NOK4GG/NOBGG/                           
                   KDEK2/-1 $                                                     

     116  LABEL    LBL16 $                                                        

     117  EQUIV    M2DD,MDD/NOSIMP/B2DD,BDD/NOGPDT/K2DD,KDD/KDEK2 $               

     118  PARAM    //*ADD*/NEVER/1/0 $                                            

     119  PARAM    //*MPY*/REPEATT/1/-1 $                                         

     120  LABEL    LBL13 $                                                        

     121  PURGE    PNLD,OUDV1,OPNL1,OUDV2,OPNL2,XYPLTTA,OPP1,OQP1,OUPV1,OES1,     
                   OEF1,OPP2,OQP2,OUPV2,OES2,OEF2,PLOTX2,XYPLTT/NEVER $           

     122  CASE     CASECC,/CASEXX/*TRAN*/S,N,REPEATT/S,N,NOLOOP $                 

     123  PARAM    //*MPY*/NCOL/0/1 $                                             

     124  TRLG     CASEXX,USETD,DLT,SLT,BGPDT,SIL,CSTM,TRL,DIT,GMD,GOD,,EST,MGG,  
                   MPT/PPT,PST,PDT,PD,,TOL/S,N,NOSET/NCOL $                       

     125  EQUIV    PPT,PDT/NOSET $                                                

     126  TRD      CASEXX,TRL,NLFT,DIT,KDD,BDD,MDD,PD/UDVT,PNLD,RLODDISP/*DIRECT*/
1     DYNAMIC DELAMINATION BUCKLING IN COMPOSITE LAMINATES UDER             /    95 SUN SOLARIS NASTRAN    / MAY 18, 95 / PAGE    15
      NASTRAN TEST PROBLEM NO. T09-07-1A                                                                                            
0     A DYNAMIC TRANSIENT RESPONSE ANALYSIS - IMPACT LOADING                                                                        
0         COSMIC / NASTRAN DMAP COMPILER - SOURCE LISTING                                                                           
                                                                                                                                    
                                                                                                                                    
                   NOUE/NONCUP/S,N,NCOL/C,Y,ISTART $                              

     127  VDR      CASEXX,EQDYN,USETD,UDVT,TOL,XYCDB,PNLD/OUDV1,OPNL1/            
                   *TRANRESP*/*DIRECT*/0/S,N,NOD/S,N,NOP/0 $                      

     128  COND     LBL15,NOD $                                                    

     129  SDR3     OUDV1,OPNL1,,,,/OUDV2,OPNL2,,,, $                              

     130  OFP      OUDV2,OPNL2,,,,//S,N,CARDNO $                                  

     131  XYTRAN   XYCDB,OUDV2,OPNL2,,,/XYPLTTA/*TRAN*/*DSET*/S,N,PFILE/          
                   S,N,CARDNO $                                                   

     132  XYPLOT   XYPLTTA// $                                                    

     133  LABEL    LBL15 $                                                        

     134  PARAM    //*AND*/PJUMP/NOP/JUMPPLOT $                                   

     135  COND     LBL18,PJUMP $                                                  

     136  EQUIV    UDVT,UPV/NOA $                                                 

     137  COND     LBL17,NOA $                                                    

     138  SDR1     USETD,,UDVT,,,GOD,GMD,PST,KFS,,/UPV,,QP/1/*DYNAMICS* $         

     139  LABEL    LBL17 $                                                        

     140  SDR2     CASEXX,CSTM,MPT,DIT,EQDYN,SILD,,,BGPDP,TOL,QP,UPV,EST,XYCDB,   
                   PPT,/OPP1,OQP1,OUPV1,OES1,OEF1,PUGV,,/*TRANRESP* $             

     141  SDR3     OPP1,OQP1,OUPV1,OES1,OEF1,/                                    
                   OPP2,OQP2,OUPV2,OES2,OEF2, $                                   

     142  OFP      OPP2,OQP2,OUPV2,OEF2,OES2,//S,N,CARDNO $                       

     143  SCAN     CASECC,OES2,OEF2,,/OESF2,/*RF* $                               

     144  OFP      OESF2,,,,,//S,N,CARDNO $                                       

     145  COND     P2,JUMPPLOT $                                                  

     146  PLOT     PLTPAR,GPSETS,ELSETS,CASEXX,BGPDT,EQEXIN,SIP,,PUGV,GPECT,OES1, 
                   ,/PLOTX2/NSIL/LUSEP/JUMPPLOT/PLTFLG/S,N,PFILE $                

     147  PRTMSG   PLOTX2// $                                                     
1     DYNAMIC DELAMINATION BUCKLING IN COMPOSITE LAMINATES UDER             /    95 SUN SOLARIS NASTRAN    / MAY 18, 95 / PAGE    16
      NASTRAN TEST PROBLEM NO. T09-07-1A                                                                                            

      A DYNAMIC TRANSIENT RESPONSE ANALYSIS - IMPACT LOADING                                                                        

          COSMIC / NASTRAN DMAP COMPILER - SOURCE LISTING                                                                           
                                                                                                                                    
                                                                                                                                    

     148  LABEL    P2 $                                                           

     148  PARAML   UPV//*TRAILER*/1/V,N,NOCUPV $                                  

     148  COPY     TIP1/CLUSI/0 $                                                 

     148  COPY     TIP1/BUBLI/0 $                                                 

     148  PARAM    //*SUB*/SHIFT/NOCUPV/ 1 $                                      

     148  LABEL    BUBTOP $                                                       

     148  FILE     BUBLI=SAVE/CLUSI=SAVE $                                        

     148  PARTN    BUBLI,,BAS1/DUMMY,,,/7 $                                       

     148  MERGE    DUMMY,,,,,TIP1/BUBLJ/7 $                                       

     148  ADD      CLUSI,BUBLJ/CLUSJ/ $                                           

     148  SWITCH   BUBLJ,BUBLI//-1 $                                              

     148  SWITCH   CLUSJ,CLUSI//-1 $                                              

     148  REPT     BUBTOP,SHIFT $                                                 

     148  PARTN    TIP1,,CLUSJ/,MNTRI,,/7 $                                       

     148  PARTN    BUBLJ,,CLUSJ/,BOOTI,,/7 $                                      

     148  COPY     MNTRI/MNTRJ/0 $                                                

     148  TA1      ECT,EPT,BGPDT,SIL,GPTT,CSTM,,EQEXIN/X1,X2,X3,ECPT,GPCT,,,/     
                   LUSET/NOSIMP/0/NOGENL/GENEL $                                  

     148  DPD      DYNAMICS,GPL,SIL,USET/GPLD,SILD,USETD,,,,,,,EED,EQDYN/V,N,     
                   LUSET/V,N,LUSETD/V,N,NOTFL/V,N,NODLT/V,N,NOPSDL/V,N,NOFRL/     
                   V,N,NONLFT/V,N,NOTRL/S,N,NOEED/C,N,123/V,N,NOUE $              

     148  COND     ERROR5,NOEED $                                                 

     148  PARAM    //*NOP*/V,N,COLNUM=1 $                                         

     148  LABEL    RAALOOP $                                                      

     148  PARAM    //*ADD*/COLNUM/COLNUM/3 $                                      
1     DYNAMIC DELAMINATION BUCKLING IN COMPOSITE LAMINATES UDER             /    95 SUN SOLARIS NASTRAN    / MAY 18, 95 / PAGE    17
      NASTRAN TEST PROBLEM NO. T09-07-1A                                                                                            

      A DYNAMIC TRANSIENT RESPONSE ANALYSIS - IMPACT LOADING                                                                        

          COSMIC / NASTRAN DMAP COMPILER - SOURCE LISTING                                                                           
                                                                                                                                    
                                                                                                                                    

     148  PARAM    //*LE*/V,N,GETOUT/NOCUPV/COLNUM $                              

     148  COND     QUITRAA,GETOUT $                                               

     148  LABEL    CORTOP $                                                       

     148  PARTN    MNTRJ,,BOOTI/DUM11,,,/7 $                                      

     148  MERGE    DUM11,,,,,MNTRI/MNTRJ/7 $                                      

     148  REPT     CORTOP, 2  $                                                   

     148  PARTN    UPV,MNTRJ,/,,COLUPV,/1  $                                      

     148  DSMG1    CASECC,GPTT,SIL,EDT,COLUPV,CSTM,MPT,ECPT,GPCT,DIT/             
                   KDGG/DSCOSET $                                                 

     148  EQUIV    KDGG,KDNN/MPCF2 $                                              

     148  COND     LBL2D,MPCF2 $                                                  

     148  MCE2     USET,GM,KDGG,,,/KDNN,,, $                                      

     148  LABEL    LBL2D $                                                        

     148  EQUIV    KDNN,KDFF/SINGLE $                                             

     148  COND     LBL3D,SINGLE $                                                 

     148  SCE1     USET,KDNN,,,/KDFF,KDFS,,,, $                                   

     148  LABEL    LBL3D $                                                        

     148  EQUIV    KDFF,KDAA/OMIT $                                               

     148  COND     LBL5D,OMIT $                                                   

     148  SMP2     USET,GO,KDFF/KDAA $                                            

     148  LABEL    LBL5D $                                                        

     148  ADD      KDAA,/KDAAM/C,N,(-1.0,0.0)/C,N,(0.0,0.0) $                     

     148  READ     KAA,KDAAM,,,EED,USET,CASECC/LAMA,PHIA,MI,OEIGS/C,N,BUCKLING/   
                   S,N,NEIGV/C,N,2 $                                              
1     DYNAMIC DELAMINATION BUCKLING IN COMPOSITE LAMINATES UDER             /    95 SUN SOLARIS NASTRAN    / MAY 18, 95 / PAGE    18
      NASTRAN TEST PROBLEM NO. T09-07-1A                                                                                            

      A DYNAMIC TRANSIENT RESPONSE ANALYSIS - IMPACT LOADING                                                                        

          COSMIC / NASTRAN DMAP COMPILER - SOURCE LISTING                                                                           
                                                                                                                                    
                                                                                                                                    

     148  COND     ERROR4,NEIGV $                                                 

     148  PARAML   LAMA//*TABLE1*/2/3/V,N,EIGV $                                  

     148  PRTPARM  //0/*EIGV*   $                                                 

     148  OFP      LAMA,,,,,//S,N,CARDNO $                                        

     148  SDR1     USET,,PHIA,,,GO,GM,,KFS,,/PHIG,,BQG/C,N,1/C,N,BKL1 $           

     148  SDR2     CASECC,CSTM,MPT,DIT,EQEXIN,SIL,,,BGPDT,LAMA,BQG,PHIG,EST,,,/,  
                   OBQG1,OPHIG,OBES1,OBEF1,PPHIG,,/C,N,BKL1 $                     

     148  COND     P3,JUMPPLOT $                                                  

     148  PLOT     PLTPAR,GPSETS,ELSETS,CASECC,BGPDT,EQEXIN,SIL,,PPHIG,GPECT,     
                   OBES1,,/PLOTX3/V,N,NSIL/V,N,LUSET/V,N,JUMPPLOT/V,N,PLTFLG/     
                   S,N,PFILE   $                                                  

     148  PRTMSG   PLOTX3// $                                                     

     148  LABEL    P3 $                                                           

     148  REPT     RAALOOP,1000 $                                                 

     148  JUMP     QUITRAA $                                                      

     148  LABEL    ERROR5 $                                                       

     148  PRTPARM  //C,N,-3/C,N,BUCKLING $                                        

     148  JUMP     QUITRAA $                                                      

     148  LABEL    ERROR4 $                                                       

     148  PRTPARM  //C,N,-4/C,N,BUCKLING $                                        

     148  LABEL    QUITRAA $                                                      

     148  JUMP     FINIS $                                                        

     149  XYTRAN   XYCDB,OPP2,OQP2,OUPV2,OES2,OEF2/XYPLTT/*TRAN*/*PSET*/          
                   S,N,PFILE/S,N,CARDNO $                                         

     150  XYPLOT   XYPLTT// $                                                     
1     DYNAMIC DELAMINATION BUCKLING IN COMPOSITE LAMINATES UDER             /    95 SUN SOLARIS NASTRAN    / MAY 18, 95 / PAGE    19
      NASTRAN TEST PROBLEM NO. T09-07-1A                                                                                            

      A DYNAMIC TRANSIENT RESPONSE ANALYSIS - IMPACT LOADING                                                                        

          COSMIC / NASTRAN DMAP COMPILER - SOURCE LISTING                                                                           
                                                                                                                                    
                                                                                                                                    

     151  LABEL    LBL18 $                                                        

     152  COND     FINIS,REPEATT $                                                

     153  REPT     LBL13,100 $                                                    

     154  PRTPARM  //-2/*DIRTRD* $                                                

     155  JUMP     FINIS $                                                        

     156  LABEL    ERROR1 $                                                       

     157  PRTPARM  //-1/*DIRTRD* $                                                

     158  LABEL    ERROR3 $                                                       

     159  PRTPARM  //-3/*DIRTRD* $                                                

     160  LABEL    FINIS  $                                                       

     161  PURGE    DUMMY/ALWAYS $                                                 

     162  END      $                                                              
1     DYNAMIC DELAMINATION BUCKLING IN COMPOSITE LAMINATES UDER             /    95 SUN SOLARIS NASTRAN    / MAY 18, 95 / PAGE    20
      NASTRAN TEST PROBLEM NO. T09-07-1A                                                                                            
0     A DYNAMIC TRANSIENT RESPONSE ANALYSIS - IMPACT LOADING                                                                        
0                                                                                                                                   
                                                                                                                                    
                                                                                                                                    

 *** USER POTENTIALLY FATAL MESSAGE  45,
                              POSSIBLE ERROR IN DMAP INSTRUCTION DPD        INSTRUCTION NO. 148
     DATA BLOCK NAMED GPLD     ALREADY APPEARED AS OUTPUT

 *** USER POTENTIALLY FATAL MESSAGE  45,
                              POSSIBLE ERROR IN DMAP INSTRUCTION DPD        INSTRUCTION NO. 148
     DATA BLOCK NAMED SILD     ALREADY APPEARED AS OUTPUT

 *** USER POTENTIALLY FATAL MESSAGE  45,
                              POSSIBLE ERROR IN DMAP INSTRUCTION DPD        INSTRUCTION NO. 148
     DATA BLOCK NAMED USETD    ALREADY APPEARED AS OUTPUT

 *** USER POTENTIALLY FATAL MESSAGE  45,
                              POSSIBLE ERROR IN DMAP INSTRUCTION DPD        INSTRUCTION NO. 148
     DATA BLOCK NAMED EQDYN    ALREADY APPEARED AS OUTPUT

 *** USER POTENTIALLY FATAL MESSAGE  45,
                              POSSIBLE ERROR IN DMAP INSTRUCTION MERGE      INSTRUCTION NO. 148
     DATA BLOCK NAMED MNTRJ    ALREADY APPEARED AS OUTPUT
0*** USER INFORMATION MESSAGE -  GRID-POINT RESEQUENCING PROCESSOR BANDIT IS NOT USED DUE TO
     THE PRESENCE OF DMI CARDS
0          **NO ERRORS FOUND - EXECUTE NASTRAN PROGRAM**
0*** USER INFORMATION MESSAGE 238, TURN DIAG 38 ON FOR ADDITIONAL ELEMENT PROCESSING INFORMATION

0*** USER INFORMATION MESSAGE 3113,
     EMG MODULE PROCESSING DOUBLE PRECISION BAR      ELEMENTS (ELEMENT TYPE  34) STARTING WITH ID        1
0*** SYSTEM WARNING MESSAGE 3022
+                                 (SEE PROG. MANUAL SEC. 4.9.7, OR USERS' MANUAL P. 6.5-3)
     DATA BLOCK CSTM     MAY BE REQUIRED AS INPUT AND IS NOT OUTPUT BY A PREVIOUS MODULE IN THE CURRENT DMAP ROUTE.
0*** SYSTEM WARNING MESSAGE 3022
+                                 (SEE PROG. MANUAL SEC. 4.9.7, OR USERS' MANUAL P. 6.5-3)
     DATA BLOCK GPST     MAY BE REQUIRED AS INPUT AND IS NOT OUTPUT BY A PREVIOUS MODULE IN THE CURRENT DMAP ROUTE.
0*** SYSTEM WARNING MESSAGE 3022
+                                 (SEE PROG. MANUAL SEC. 4.9.7, OR USERS' MANUAL P. 6.5-3)
     DATA BLOCK CSTM     MAY BE REQUIRED AS INPUT AND IS NOT OUTPUT BY A PREVIOUS MODULE IN THE CURRENT DMAP ROUTE.
0*** SYSTEM WARNING MESSAGE 3022
+                                 (SEE PROG. MANUAL SEC. 4.9.7, OR USERS' MANUAL P. 6.5-3)
     DATA BLOCK SLT      MAY BE REQUIRED AS INPUT AND IS NOT OUTPUT BY A PREVIOUS MODULE IN THE CURRENT DMAP ROUTE.
0*** SYSTEM WARNING MESSAGE 3022
+                                 (SEE PROG. MANUAL SEC. 4.9.7, OR USERS' MANUAL P. 6.5-3)
     DATA BLOCK CSTM     MAY BE REQUIRED AS INPUT AND IS NOT OUTPUT BY A PREVIOUS MODULE IN THE CURRENT DMAP ROUTE.
0*** SYSTEM WARNING MESSAGE 3022
+                                 (SEE PROG. MANUAL SEC. 4.9.7, OR USERS' MANUAL P. 6.5-3)
     DATA BLOCK CSTM     MAY BE REQUIRED AS INPUT AND IS NOT OUTPUT BY A PREVIOUS MODULE IN THE CURRENT DMAP ROUTE.
1     DYNAMIC DELAMINATION BUCKLING IN COMPOSITE LAMINATES UDER             /    95 SUN SOLARIS NASTRAN    / MAY 18, 95 / PAGE    21
      NASTRAN TEST PROBLEM NO. T09-07-1A                                                                                            
0     A DYNAMIC TRANSIENT RESPONSE ANALYSIS - IMPACT LOADING                                                 SUBCASE 1              
      POINT-ID =       1
                                             D I S P L A C E M E N T   V E C T O R
 
       TIME       TYPE          T1             T2             T3             R1             R2             R3
   0.0              G      0.0            0.0            0.0            0.0            0.0            0.0                           
   5.000000E-05     G      0.0            7.791522E-05   0.0            0.0            0.0            0.0                           
   1.000000E-04     G      0.0            2.833486E-04   0.0            0.0            0.0            0.0                           
   1.500000E-04     G      0.0            4.265859E-04   0.0            0.0            0.0            0.0                           
   2.000000E-04     G      0.0            5.463337E-04   0.0            0.0            0.0            0.0                           
   2.499999E-04     G      0.0            7.243613E-04   0.0            0.0            0.0            0.0                           
   3.000000E-04     G      0.0            8.838057E-04   0.0            0.0            0.0            0.0                           
   3.500000E-04     G      0.0            1.007714E-03   0.0            0.0            0.0            0.0                           
   4.000000E-04     G      0.0            1.169509E-03   0.0            0.0            0.0            0.0                           
   4.500001E-04     G      0.0            1.338082E-03   0.0            0.0            0.0            0.0                           
   5.000001E-04     G      0.0            1.469081E-03   0.0            0.0            0.0            0.0                           
   5.500000E-04     G      0.0            1.617869E-03   0.0            0.0            0.0            0.0                           
   5.999999E-04     G      0.0            1.789242E-03   0.0            0.0            0.0            0.0                           
   6.499998E-04     G      0.0            1.929997E-03   0.0            0.0            0.0            0.0                           
   6.999997E-04     G      0.0            2.069592E-03   0.0            0.0            0.0            0.0                           
   7.499997E-04     G      0.0            2.238200E-03   0.0            0.0            0.0            0.0                           
   7.999996E-04     G      0.0            2.389032E-03   0.0            0.0            0.0            0.0                           
   8.499995E-04     G      0.0            2.523168E-03   0.0            0.0            0.0            0.0                           
   8.999994E-04     G      0.0            2.680726E-03   0.0            0.0            0.0            0.0                           
   9.499993E-04     G      0.0            2.825796E-03   0.0            0.0            0.0            0.0                           
   9.999992E-04     G      0.0            2.921357E-03   0.0            0.0            0.0            0.0                           
   1.049999E-03     G      0.0            2.981508E-03   0.0            0.0            0.0            0.0                           
   1.099999E-03     G      0.0            2.966741E-03   0.0            0.0            0.0            0.0                           
   1.149999E-03     G      0.0            2.823061E-03   0.0            0.0            0.0            0.0                           
   1.199999E-03     G      0.0            2.601663E-03   0.0            0.0            0.0            0.0                           
   1.249999E-03     G      0.0            2.385690E-03   0.0            0.0            0.0            0.0                           
   1.299999E-03     G      0.0            2.209562E-03   0.0            0.0            0.0            0.0                           
   1.349999E-03     G      0.0            2.093357E-03   0.0            0.0            0.0            0.0                           
   1.399999E-03     G      0.0            2.002226E-03   0.0            0.0            0.0            0.0                           
   1.449998E-03     G      0.0            1.845045E-03   0.0            0.0            0.0            0.0                           
   1.499998E-03     G      0.0            1.633392E-03   0.0            0.0            0.0            0.0                           
   1.549998E-03     G      0.0            1.474844E-03   0.0            0.0            0.0            0.0                           
   1.599998E-03     G      0.0            1.370774E-03   0.0            0.0            0.0            0.0                           
   1.649998E-03     G      0.0            1.230518E-03   0.0            0.0            0.0            0.0                           
   1.699998E-03     G      0.0            1.047835E-03   0.0            0.0            0.0            0.0                           
   1.749998E-03     G      0.0            8.836139E-04   0.0            0.0            0.0            0.0                           
   1.799998E-03     G      0.0            7.514673E-04   0.0            0.0            0.0            0.0                           
   1.849998E-03     G      0.0            6.199284E-04   0.0            0.0            0.0            0.0                           
   1.899998E-03     G      0.0            4.649677E-04   0.0            0.0            0.0            0.0                           
   1.949998E-03     G      0.0            3.086726E-04   0.0            0.0            0.0            0.0                           
   1.999998E-03     G      0.0            2.060432E-04   0.0            0.0            0.0            0.0                           
   2.049997E-03     G      0.0            1.575768E-04   0.0            0.0            0.0            0.0                           
   2.099997E-03     G      0.0            1.261966E-04   0.0            0.0            0.0            0.0                           
   2.149997E-03     G      0.0            1.621900E-04   0.0            0.0            0.0            0.0                           
   2.199997E-03     G      0.0            3.330107E-04   0.0            0.0            0.0            0.0                           
   2.249997E-03     G      0.0            5.667948E-04   0.0            0.0            0.0            0.0                           
   2.299997E-03     G      0.0            7.694162E-04   0.0            0.0            0.0            0.0                           
1     DYNAMIC DELAMINATION BUCKLING IN COMPOSITE LAMINATES UDER             /    95 SUN SOLARIS NASTRAN    / MAY 18, 95 / PAGE    22
      NASTRAN TEST PROBLEM NO. T09-07-1A                                                                                            
0     A DYNAMIC TRANSIENT RESPONSE ANALYSIS - IMPACT LOADING                                                 SUBCASE 1              
      POINT-ID =       1
                                             D I S P L A C E M E N T   V E C T O R
 
       TIME       TYPE          T1             T2             T3             R1             R2             R3
   2.349997E-03     G      0.0            9.611733E-04   0.0            0.0            0.0            0.0                           
   2.399997E-03     G      0.0            1.136660E-03   0.0            0.0            0.0            0.0                           
   2.449997E-03     G      0.0            1.230634E-03   0.0            0.0            0.0            0.0                           
   2.499997E-03     G      0.0            1.304005E-03   0.0            0.0            0.0            0.0                           
1     DYNAMIC DELAMINATION BUCKLING IN COMPOSITE LAMINATES UDER             /    95 SUN SOLARIS NASTRAN    / MAY 18, 95 / PAGE    23
      NASTRAN TEST PROBLEM NO. T09-07-1A                                                                                            
0     A DYNAMIC TRANSIENT RESPONSE ANALYSIS - IMPACT LOADING                                                 SUBCASE 1              
      POINT-ID =       2
                                             D I S P L A C E M E N T   V E C T O R
 
       TIME       TYPE          T1             T2             T3             R1             R2             R3
   0.0              G      0.0            0.0            0.0            0.0            0.0            0.0                           
   5.000000E-05     G      0.0            5.669056E-06   0.0            0.0            0.0            0.0                           
   1.000000E-04     G      0.0            7.774270E-05   0.0            0.0            0.0            0.0                           
   1.500000E-04     G      0.0            2.586351E-04   0.0            0.0            0.0            0.0                           
   2.000000E-04     G      0.0            4.359457E-04   0.0            0.0            0.0            0.0                           
   2.499999E-04     G      0.0            5.548621E-04   0.0            0.0            0.0            0.0                           
   3.000000E-04     G      0.0            7.039463E-04   0.0            0.0            0.0            0.0                           
   3.500000E-04     G      0.0            8.826139E-04   0.0            0.0            0.0            0.0                           
   4.000000E-04     G      0.0            1.019803E-03   0.0            0.0            0.0            0.0                           
   4.500001E-04     G      0.0            1.155974E-03   0.0            0.0            0.0            0.0                           
   5.000001E-04     G      0.0            1.328913E-03   0.0            0.0            0.0            0.0                           
   5.500000E-04     G      0.0            1.480451E-03   0.0            0.0            0.0            0.0                           
   5.999999E-04     G      0.0            1.612081E-03   0.0            0.0            0.0            0.0                           
   6.499998E-04     G      0.0            1.775490E-03   0.0            0.0            0.0            0.0                           
   6.999997E-04     G      0.0            1.937281E-03   0.0            0.0            0.0            0.0                           
   7.499997E-04     G      0.0            2.070662E-03   0.0            0.0            0.0            0.0                           
   7.999996E-04     G      0.0            2.222987E-03   0.0            0.0            0.0            0.0                           
   8.499995E-04     G      0.0            2.387788E-03   0.0            0.0            0.0            0.0                           
   8.999994E-04     G      0.0            2.519927E-03   0.0            0.0            0.0            0.0                           
   9.499993E-04     G      0.0            2.641345E-03   0.0            0.0            0.0            0.0                           
   9.999992E-04     G      0.0            2.753662E-03   0.0            0.0            0.0            0.0                           
   1.049999E-03     G      0.0            2.790481E-03   0.0            0.0            0.0            0.0                           
   1.099999E-03     G      0.0            2.738073E-03   0.0            0.0            0.0            0.0                           
   1.149999E-03     G      0.0            2.627319E-03   0.0            0.0            0.0            0.0                           
   1.199999E-03     G      0.0            2.454565E-03   0.0            0.0            0.0            0.0                           
   1.249999E-03     G      0.0            2.251718E-03   0.0            0.0            0.0            0.0                           
   1.299999E-03     G      0.0            2.089588E-03   0.0            0.0            0.0            0.0                           
   1.349999E-03     G      0.0            1.957447E-03   0.0            0.0            0.0            0.0                           
   1.399999E-03     G      0.0            1.806941E-03   0.0            0.0            0.0            0.0                           
   1.449998E-03     G      0.0            1.655511E-03   0.0            0.0            0.0            0.0                           
   1.499998E-03     G      0.0            1.514909E-03   0.0            0.0            0.0            0.0                           
   1.549998E-03     G      0.0            1.355515E-03   0.0            0.0            0.0            0.0                           
   1.599998E-03     G      0.0            1.191278E-03   0.0            0.0            0.0            0.0                           
   1.649998E-03     G      0.0            1.050286E-03   0.0            0.0            0.0            0.0                           
   1.699998E-03     G      0.0            9.072769E-04   0.0            0.0            0.0            0.0                           
   1.749998E-03     G      0.0            7.486974E-04   0.0            0.0            0.0            0.0                           
   1.799998E-03     G      0.0            5.972547E-04   0.0            0.0            0.0            0.0                           
   1.849998E-03     G      0.0            4.511868E-04   0.0            0.0            0.0            0.0                           
   1.899998E-03     G      0.0            3.075337E-04   0.0            0.0            0.0            0.0                           
   1.949998E-03     G      0.0            1.862555E-04   0.0            0.0            0.0            0.0                           
   1.999998E-03     G      0.0            8.355966E-05   0.0            0.0            0.0            0.0                           
   2.049997E-03     G      0.0            5.702795E-06   0.0            0.0            0.0            0.0                           
   2.099997E-03     G      0.0            4.943741E-06   0.0            0.0            0.0            0.0                           
   2.149997E-03     G      0.0            8.845808E-05   0.0            0.0            0.0            0.0                           
   2.199997E-03     G      0.0            2.130395E-04   0.0            0.0            0.0            0.0                           
   2.249997E-03     G      0.0            3.872583E-04   0.0            0.0            0.0            0.0                           
   2.299997E-03     G      0.0            6.124270E-04   0.0            0.0            0.0            0.0                           
1     DYNAMIC DELAMINATION BUCKLING IN COMPOSITE LAMINATES UDER             /    95 SUN SOLARIS NASTRAN    / MAY 18, 95 / PAGE    24
      NASTRAN TEST PROBLEM NO. T09-07-1A                                                                                            
0     A DYNAMIC TRANSIENT RESPONSE ANALYSIS - IMPACT LOADING                                                 SUBCASE 1              
      POINT-ID =       2
                                             D I S P L A C E M E N T   V E C T O R
 
       TIME       TYPE          T1             T2             T3             R1             R2             R3
   2.349997E-03     G      0.0            8.047232E-04   0.0            0.0            0.0            0.0                           
   2.399997E-03     G      0.0            9.308720E-04   0.0            0.0            0.0            0.0                           
   2.449997E-03     G      0.0            1.061037E-03   0.0            0.0            0.0            0.0                           
   2.499997E-03     G      0.0            1.213114E-03   0.0            0.0            0.0            0.0                           
1     DYNAMIC DELAMINATION BUCKLING IN COMPOSITE LAMINATES UDER             /    95 SUN SOLARIS NASTRAN    / MAY 18, 95 / PAGE    25
      NASTRAN TEST PROBLEM NO. T09-07-1A                                                                                            
0     A DYNAMIC TRANSIENT RESPONSE ANALYSIS - IMPACT LOADING                                                 SUBCASE 1              
      POINT-ID =       3
                                             D I S P L A C E M E N T   V E C T O R
 
       TIME       TYPE          T1             T2             T3             R1             R2             R3
   0.0              G      0.0            0.0            0.0            0.0            0.0            0.0                           
   5.000000E-05     G      0.0            2.705426E-07   0.0            0.0            0.0            0.0                           
   1.000000E-04     G      0.0            1.035430E-05   0.0            0.0            0.0            0.0                           
   1.500000E-04     G      0.0            7.780899E-05   0.0            0.0            0.0            0.0                           
   2.000000E-04     G      0.0            2.423476E-04   0.0            0.0            0.0            0.0                           
   2.499999E-04     G      0.0            4.324650E-04   0.0            0.0            0.0            0.0                           
   3.000000E-04     G      0.0            5.659074E-04   0.0            0.0            0.0            0.0                           
   3.500000E-04     G      0.0            6.951988E-04   0.0            0.0            0.0            0.0                           
   4.000000E-04     G      0.0            8.701677E-04   0.0            0.0            0.0            0.0                           
   4.500001E-04     G      0.0            1.028362E-03   0.0            0.0            0.0            0.0                           
   5.000001E-04     G      0.0            1.155848E-03   0.0            0.0            0.0            0.0                           
   5.500000E-04     G      0.0            1.314044E-03   0.0            0.0            0.0            0.0                           
   5.999999E-04     G      0.0            1.482732E-03   0.0            0.0            0.0            0.0                           
   6.499998E-04     G      0.0            1.617822E-03   0.0            0.0            0.0            0.0                           
   6.999997E-04     G      0.0            1.762709E-03   0.0            0.0            0.0            0.0                           
   7.499997E-04     G      0.0            1.932251E-03   0.0            0.0            0.0            0.0                           
   7.999996E-04     G      0.0            2.076195E-03   0.0            0.0            0.0            0.0                           
   8.499995E-04     G      0.0            2.206427E-03   0.0            0.0            0.0            0.0                           
   8.999994E-04     G      0.0            2.351227E-03   0.0            0.0            0.0            0.0                           
   9.499993E-04     G      0.0            2.458872E-03   0.0            0.0            0.0            0.0                           
   9.999992E-04     G      0.0            2.498742E-03   0.0            0.0            0.0            0.0                           
   1.049999E-03     G      0.0            2.500675E-03   0.0            0.0            0.0            0.0                           
   1.099999E-03     G      0.0            2.456789E-03   0.0            0.0            0.0            0.0                           
   1.149999E-03     G      0.0            2.361977E-03   0.0            0.0            0.0            0.0                           
   1.199999E-03     G      0.0            2.268858E-03   0.0            0.0            0.0            0.0                           
   1.249999E-03     G      0.0            2.172505E-03   0.0            0.0            0.0            0.0                           
   1.299999E-03     G      0.0            2.005969E-03   0.0            0.0            0.0            0.0                           
   1.349999E-03     G      0.0            1.791154E-03   0.0            0.0            0.0            0.0                           
   1.399999E-03     G      0.0            1.612465E-03   0.0            0.0            0.0            0.0                           
   1.449998E-03     G      0.0            1.484670E-03   0.0            0.0            0.0            0.0                           
   1.499998E-03     G      0.0            1.369306E-03   0.0            0.0            0.0            0.0                           
   1.549998E-03     G      0.0            1.228772E-03   0.0            0.0            0.0            0.0                           
   1.599998E-03     G      0.0            1.044903E-03   0.0            0.0            0.0            0.0                           
   1.649998E-03     G      0.0            8.654841E-04   0.0            0.0            0.0            0.0                           
   1.699998E-03     G      0.0            7.446280E-04   0.0            0.0            0.0            0.0                           
   1.749998E-03     G      0.0            6.262055E-04   0.0            0.0            0.0            0.0                           
   1.799998E-03     G      0.0            4.486617E-04   0.0            0.0            0.0            0.0                           
   1.849998E-03     G      0.0            2.803926E-04   0.0            0.0            0.0            0.0                           
   1.899998E-03     G      0.0            1.780106E-04   0.0            0.0            0.0            0.0                           
   1.949998E-03     G      0.0            8.245576E-05   0.0            0.0            0.0            0.0                           
   1.999998E-03     G      0.0           -2.141346E-05   0.0            0.0            0.0            0.0                           
   2.049997E-03     G      0.0           -5.963694E-05   0.0            0.0            0.0            0.0                           
   2.099997E-03     G      0.0           -2.084428E-05   0.0            0.0            0.0            0.0                           
   2.149997E-03     G      0.0            4.777913E-05   0.0            0.0            0.0            0.0                           
   2.199997E-03     G      0.0            1.444489E-04   0.0            0.0            0.0            0.0                           
   2.249997E-03     G      0.0            2.747203E-04   0.0            0.0            0.0            0.0                           
   2.299997E-03     G      0.0            4.142890E-04   0.0            0.0            0.0            0.0                           
1     DYNAMIC DELAMINATION BUCKLING IN COMPOSITE LAMINATES UDER             /    95 SUN SOLARIS NASTRAN    / MAY 18, 95 / PAGE    26
      NASTRAN TEST PROBLEM NO. T09-07-1A                                                                                            
0     A DYNAMIC TRANSIENT RESPONSE ANALYSIS - IMPACT LOADING                                                 SUBCASE 1              
      POINT-ID =       3
                                             D I S P L A C E M E N T   V E C T O R
 
       TIME       TYPE          T1             T2             T3             R1             R2             R3
   2.349997E-03     G      0.0            5.639336E-04   0.0            0.0            0.0            0.0                           
   2.399997E-03     G      0.0            7.385961E-04   0.0            0.0            0.0            0.0                           
   2.449997E-03     G      0.0            9.228185E-04   0.0            0.0            0.0            0.0                           
   2.499997E-03     G      0.0            1.094672E-03   0.0            0.0            0.0            0.0                           
[...]
0*** SYSTEM WARNING MESSAGE 3022
+                                 (SEE PROG. MANUAL SEC. 4.9.7, OR USERS' MANUAL P. 6.5-3)
     DATA BLOCK CSTM     MAY BE REQUIRED AS INPUT AND IS NOT OUTPUT BY A PREVIOUS MODULE IN THE CURRENT DMAP ROUTE.
                        0 ROOTS BELOW   5.050000E-01
0*** SYSTEM WARNING MESSAGE 3022
+                                 (SEE PROG. MANUAL SEC. 4.9.7, OR USERS' MANUAL P. 6.5-3)
     DATA BLOCK CSTM     MAY BE REQUIRED AS INPUT AND IS NOT OUTPUT BY A PREVIOUS MODULE IN THE CURRENT DMAP ROUTE.
0*** USER INFORMATION MESSAGE FROM PARAML MODULE  - TABLE1   -
     (ALL PARAML MESSAGES CAN BE SUPPRESSED BY DIAG 37)

     INPUT FILE LAMA     RECORD     2 WORD     3             =
+                                                                       0.11883297E+01   = EIGV    
1     DYNAMIC DELAMINATION BUCKLING IN COMPOSITE LAMINATES UDER             /    95 SUN SOLARIS NASTRAN    / MAY 18, 95 / PAGE   275
      NASTRAN TEST PROBLEM NO. T09-07-1A                                                                                            
0     A DYNAMIC TRANSIENT RESPONSE ANALYSIS - IMPACT LOADING                                                                        
0                                                                                                                                   
                                 C O N T E N T S   O F   P A R A M E T E R   T A B L E                                              
                                                                                                                                    
                    EIGV                1.188330E+00
1     DYNAMIC DELAMINATION BUCKLING IN COMPOSITE LAMINATES UDER             /    95 SUN SOLARIS NASTRAN    / MAY 18, 95 / PAGE   276
      NASTRAN TEST PROBLEM NO. T09-07-1A                                                                                            
0     A DYNAMIC TRANSIENT RESPONSE ANALYSIS - IMPACT LOADING                                                                        
 
                                              R E A L   E I G E N V A L U E S

   MODE    EXTRACTION       EIGENVALUE            RADIAN              CYCLIC           GENERALIZED         GENERALIZED
    NO.       ORDER                              FREQUENCY           FREQUENCY            MASS              STIFFNESS

        1         1        1.188330E+00        1.090105E+00        1.734957E-01        1.454685E+00        1.728645E+00             
1     DYNAMIC DELAMINATION BUCKLING IN COMPOSITE LAMINATES UDER             /    95 SUN SOLARIS NASTRAN    / MAY 18, 95 / PAGE   277
      NASTRAN TEST PROBLEM NO. T09-07-1A                                                                                            

      A DYNAMIC TRANSIENT RESPONSE ANALYSIS - IMPACT LOADING                                                                        




0*** SYSTEM WARNING MESSAGE 3022
+                                 (SEE PROG. MANUAL SEC. 4.9.7, OR USERS' MANUAL P. 6.5-3)
     DATA BLOCK GPTT     MAY BE REQUIRED AS INPUT AND IS NOT OUTPUT BY A PREVIOUS MODULE IN THE CURRENT DMAP ROUTE.
0*** SYSTEM WARNING MESSAGE 3022
+                                 (SEE PROG. MANUAL SEC. 4.9.7, OR USERS' MANUAL P. 6.5-3)
     DATA BLOCK CSTM     MAY BE REQUIRED AS INPUT AND IS NOT OUTPUT BY A PREVIOUS MODULE IN THE CURRENT DMAP ROUTE.
0*** SYSTEM WARNING MESSAGE 3022
+                                 (SEE PROG. MANUAL SEC. 4.9.7, OR USERS' MANUAL P. 6.5-3)
     DATA BLOCK GPTT     MAY BE REQUIRED AS INPUT AND IS NOT OUTPUT BY A PREVIOUS MODULE IN THE CURRENT DMAP ROUTE.
0*** SYSTEM WARNING MESSAGE 3022
+                                 (SEE PROG. MANUAL SEC. 4.9.7, OR USERS' MANUAL P. 6.5-3)
     DATA BLOCK CSTM     MAY BE REQUIRED AS INPUT AND IS NOT OUTPUT BY A PREVIOUS MODULE IN THE CURRENT DMAP ROUTE.
0*** SYSTEM WARNING MESSAGE 3022
+                                 (SEE PROG. MANUAL SEC. 4.9.7, OR USERS' MANUAL P. 6.5-3)
     DATA BLOCK GPTT     MAY BE REQUIRED AS INPUT AND IS NOT OUTPUT BY A PREVIOUS MODULE IN THE CURRENT DMAP ROUTE.
0*** SYSTEM WARNING MESSAGE 3022
+                                 (SEE PROG. MANUAL SEC. 4.9.7, OR USERS' MANUAL P. 6.5-3)
     DATA BLOCK CSTM     MAY BE REQUIRED AS INPUT AND IS NOT OUTPUT BY A PREVIOUS MODULE IN THE CURRENT DMAP ROUTE.
                        0 ROOTS BELOW   5.050000E-01
0*** SYSTEM WARNING MESSAGE 3022
+                                 (SEE PROG. MANUAL SEC. 4.9.7, OR USERS' MANUAL P. 6.5-3)
     DATA BLOCK CSTM     MAY BE REQUIRED AS INPUT AND IS NOT OUTPUT BY A PREVIOUS MODULE IN THE CURRENT DMAP ROUTE.
0*** USER INFORMATION MESSAGE FROM PARAML MODULE  - TABLE1   -
     (ALL PARAML MESSAGES CAN BE SUPPRESSED BY DIAG 37)

     INPUT FILE LAMA     RECORD     2 WORD     3             =
+                                                                       0.10155536E+01   = EIGV    
1     DYNAMIC DELAMINATION BUCKLING IN COMPOSITE LAMINATES UDER             /    95 SUN SOLARIS NASTRAN    / MAY 18, 95 / PAGE   278
      NASTRAN TEST PROBLEM NO. T09-07-1A                                                                                            
0     A DYNAMIC TRANSIENT RESPONSE ANALYSIS - IMPACT LOADING                                                                        
0                                                                                                                                   
                                 C O N T E N T S   O F   P A R A M E T E R   T A B L E                                              
                                                                                                                                    
                    EIGV                1.015554E+00
1     DYNAMIC DELAMINATION BUCKLING IN COMPOSITE LAMINATES UDER             /    95 SUN SOLARIS NASTRAN    / MAY 18, 95 / PAGE   279
      NASTRAN TEST PROBLEM NO. T09-07-1A                                                                                            
0     A DYNAMIC TRANSIENT RESPONSE ANALYSIS - IMPACT LOADING                                                                        
 
                                              R E A L   E I G E N V A L U E S

   MODE    EXTRACTION       EIGENVALUE            RADIAN              CYCLIC           GENERALIZED         GENERALIZED
    NO.       ORDER                              FREQUENCY           FREQUENCY            MASS              STIFFNESS

        1         1        1.015554E+00        1.007747E+00        1.603879E-01        1.757779E+00        1.785119E+00             
1     DYNAMIC DELAMINATION BUCKLING IN COMPOSITE LAMINATES UDER             /    95 SUN SOLARIS NASTRAN    / MAY 18, 95 / PAGE   280
      NASTRAN TEST PROBLEM NO. T09-07-1A                                                                                            

      A DYNAMIC TRANSIENT RESPONSE ANALYSIS - IMPACT LOADING                                                                        




0*** SYSTEM WARNING MESSAGE 3022
+                                 (SEE PROG. MANUAL SEC. 4.9.7, OR USERS' MANUAL P. 6.5-3)
     DATA BLOCK GPTT     MAY BE REQUIRED AS INPUT AND IS NOT OUTPUT BY A PREVIOUS MODULE IN THE CURRENT DMAP ROUTE.
0*** SYSTEM WARNING MESSAGE 3022
+                                 (SEE PROG. MANUAL SEC. 4.9.7, OR USERS' MANUAL P. 6.5-3)
     DATA BLOCK CSTM     MAY BE REQUIRED AS INPUT AND IS NOT OUTPUT BY A PREVIOUS MODULE IN THE CURRENT DMAP ROUTE.
0*** SYSTEM WARNING MESSAGE 3022
+                                 (SEE PROG. MANUAL SEC. 4.9.7, OR USERS' MANUAL P. 6.5-3)
     DATA BLOCK GPTT     MAY BE REQUIRED AS INPUT AND IS NOT OUTPUT BY A PREVIOUS MODULE IN THE CURRENT DMAP ROUTE.
0*** SYSTEM WARNING MESSAGE 3022
+                                 (SEE PROG. MANUAL SEC. 4.9.7, OR USERS' MANUAL P. 6.5-3)
     DATA BLOCK CSTM     MAY BE REQUIRED AS INPUT AND IS NOT OUTPUT BY A PREVIOUS MODULE IN THE CURRENT DMAP ROUTE.
0*** SYSTEM WARNING MESSAGE 3022
+                                 (SEE PROG. MANUAL SEC. 4.9.7, OR USERS' MANUAL P. 6.5-3)
     DATA BLOCK GPTT     MAY BE REQUIRED AS INPUT AND IS NOT OUTPUT BY A PREVIOUS MODULE IN THE CURRENT DMAP ROUTE.
0*** SYSTEM WARNING MESSAGE 3022
+                                 (SEE PROG. MANUAL SEC. 4.9.7, OR USERS' MANUAL P. 6.5-3)
     DATA BLOCK CSTM     MAY BE REQUIRED AS INPUT AND IS NOT OUTPUT BY A PREVIOUS MODULE IN THE CURRENT DMAP ROUTE.
                        0 ROOTS BELOW   5.050000E-01
                        2 ROOTS BELOW   9.330094E-01
0*** SYSTEM WARNING MESSAGE 3022
+                                 (SEE PROG. MANUAL SEC. 4.9.7, OR USERS' MANUAL P. 6.5-3)
     DATA BLOCK CSTM     MAY BE REQUIRED AS INPUT AND IS NOT OUTPUT BY A PREVIOUS MODULE IN THE CURRENT DMAP ROUTE.
0*** USER INFORMATION MESSAGE FROM PARAML MODULE  - TABLE1   -
     (ALL PARAML MESSAGES CAN BE SUPPRESSED BY DIAG 37)

     INPUT FILE LAMA     RECORD     2 WORD     3             =
+                                                                       0.93300760E+00   = EIGV    
1     DYNAMIC DELAMINATION BUCKLING IN COMPOSITE LAMINATES UDER             /    95 SUN SOLARIS NASTRAN    / MAY 18, 95 / PAGE   281
      NASTRAN TEST PROBLEM NO. T09-07-1A                                                                                            
0     A DYNAMIC TRANSIENT RESPONSE ANALYSIS - IMPACT LOADING                                                                        
0                                                                                                                                   
                                 C O N T E N T S   O F   P A R A M E T E R   T A B L E                                              
                                                                                                                                    
                    EIGV                9.330076E-01
1     DYNAMIC DELAMINATION BUCKLING IN COMPOSITE LAMINATES UDER             /    95 SUN SOLARIS NASTRAN    / MAY 18, 95 / PAGE   282
      NASTRAN TEST PROBLEM NO. T09-07-1A                                                                                            
0     A DYNAMIC TRANSIENT RESPONSE ANALYSIS - IMPACT LOADING                                                                        
 
                                              R E A L   E I G E N V A L U E S

   MODE    EXTRACTION       EIGENVALUE            RADIAN              CYCLIC           GENERALIZED         GENERALIZED
    NO.       ORDER                              FREQUENCY           FREQUENCY            MASS              STIFFNESS

        1         1        9.330076E-01        9.659232E-01        1.537315E-01        1.900522E+00        1.773201E+00             
        2         2        9.330076E-01        9.659232E-01        1.537315E-01        1.900520E+00        1.773200E+00             
        3         3        1.217451E+01        3.489199E+00        5.553233E-01        2.296540E+00        2.795925E+01             
1     DYNAMIC DELAMINATION BUCKLING IN COMPOSITE LAMINATES UDER             /    95 SUN SOLARIS NASTRAN    / MAY 18, 95 / PAGE   283
      NASTRAN TEST PROBLEM NO. T09-07-1A                                                                                            

      A DYNAMIC TRANSIENT RESPONSE ANALYSIS - IMPACT LOADING                                                                        




0*** SYSTEM WARNING MESSAGE 3022
+                                 (SEE PROG. MANUAL SEC. 4.9.7, OR USERS' MANUAL P. 6.5-3)
     DATA BLOCK GPTT     MAY BE REQUIRED AS INPUT AND IS NOT OUTPUT BY A PREVIOUS MODULE IN THE CURRENT DMAP ROUTE.
0*** SYSTEM WARNING MESSAGE 3022
+                                 (SEE PROG. MANUAL SEC. 4.9.7, OR USERS' MANUAL P. 6.5-3)
     DATA BLOCK CSTM     MAY BE REQUIRED AS INPUT AND IS NOT OUTPUT BY A PREVIOUS MODULE IN THE CURRENT DMAP ROUTE.
0*** SYSTEM WARNING MESSAGE 3022
+                                 (SEE PROG. MANUAL SEC. 4.9.7, OR USERS' MANUAL P. 6.5-3)
     DATA BLOCK GPTT     MAY BE REQUIRED AS INPUT AND IS NOT OUTPUT BY A PREVIOUS MODULE IN THE CURRENT DMAP ROUTE.
0*** SYSTEM WARNING MESSAGE 3022
+                                 (SEE PROG. MANUAL SEC. 4.9.7, OR USERS' MANUAL P. 6.5-3)
     DATA BLOCK CSTM     MAY BE REQUIRED AS INPUT AND IS NOT OUTPUT BY A PREVIOUS MODULE IN THE CURRENT DMAP ROUTE.
0*** SYSTEM WARNING MESSAGE 3022
+                                 (SEE PROG. MANUAL SEC. 4.9.7, OR USERS' MANUAL P. 6.5-3)
     DATA BLOCK GPTT     MAY BE REQUIRED AS INPUT AND IS NOT OUTPUT BY A PREVIOUS MODULE IN THE CURRENT DMAP ROUTE.
0*** SYSTEM WARNING MESSAGE 3022
+                                 (SEE PROG. MANUAL SEC. 4.9.7, OR USERS' MANUAL P. 6.5-3)
     DATA BLOCK CSTM     MAY BE REQUIRED AS INPUT AND IS NOT OUTPUT BY A PREVIOUS MODULE IN THE CURRENT DMAP ROUTE.
                        0 ROOTS BELOW   5.050000E-01
                        2 ROOTS BELOW   9.758211E-01
                        2 ROOTS BELOW   9.758236E-01
0*** SYSTEM WARNING MESSAGE 3022
+                                 (SEE PROG. MANUAL SEC. 4.9.7, OR USERS' MANUAL P. 6.5-3)
     DATA BLOCK CSTM     MAY BE REQUIRED AS INPUT AND IS NOT OUTPUT BY A PREVIOUS MODULE IN THE CURRENT DMAP ROUTE.
0*** USER INFORMATION MESSAGE FROM PARAML MODULE  - TABLE1   -
     (ALL PARAML MESSAGES CAN BE SUPPRESSED BY DIAG 37)

     INPUT FILE LAMA     RECORD     2 WORD     3             =
+                                                                       0.97582114E+00   = EIGV    
1     DYNAMIC DELAMINATION BUCKLING IN COMPOSITE LAMINATES UDER             /    95 SUN SOLARIS NASTRAN    / MAY 18, 95 / PAGE   284
      NASTRAN TEST PROBLEM NO. T09-07-1A                                                                                            
0     A DYNAMIC TRANSIENT RESPONSE ANALYSIS - IMPACT LOADING                                                                        
0                                                                                                                                   
                                 C O N T E N T S   O F   P A R A M E T E R   T A B L E                                              
                                                                                                                                    
                    EIGV                9.758211E-01
1     DYNAMIC DELAMINATION BUCKLING IN COMPOSITE LAMINATES UDER             /    95 SUN SOLARIS NASTRAN    / MAY 18, 95 / PAGE   285
      NASTRAN TEST PROBLEM NO. T09-07-1A                                                                                            
0     A DYNAMIC TRANSIENT RESPONSE ANALYSIS - IMPACT LOADING                                                                        
 
                                              R E A L   E I G E N V A L U E S

   MODE    EXTRACTION       EIGENVALUE            RADIAN              CYCLIC           GENERALIZED         GENERALIZED
    NO.       ORDER                              FREQUENCY           FREQUENCY            MASS              STIFFNESS

        1         1        9.758211E-01        9.878366E-01        1.572191E-01        1.641426E+00        1.601739E+00             
        2         2        9.758211E-01        9.878366E-01        1.572191E-01        1.641426E+00        1.601739E+00             
        3         3        1.101580E+01        3.319006E+00        5.282362E-01        3.781407E+00        4.165523E+01             
1     DYNAMIC DELAMINATION BUCKLING IN COMPOSITE LAMINATES UDER             /    95 SUN SOLARIS NASTRAN    / MAY 18, 95 / PAGE   286
      NASTRAN TEST PROBLEM NO. T09-07-1A                                                                                            

      A DYNAMIC TRANSIENT RESPONSE ANALYSIS - IMPACT LOADING                                                                        




0*** SYSTEM WARNING MESSAGE 3022
+                                 (SEE PROG. MANUAL SEC. 4.9.7, OR USERS' MANUAL P. 6.5-3)
     DATA BLOCK GPTT     MAY BE REQUIRED AS INPUT AND IS NOT OUTPUT BY A PREVIOUS MODULE IN THE CURRENT DMAP ROUTE.
0*** SYSTEM WARNING MESSAGE 3022
+                                 (SEE PROG. MANUAL SEC. 4.9.7, OR USERS' MANUAL P. 6.5-3)
     DATA BLOCK CSTM     MAY BE REQUIRED AS INPUT AND IS NOT OUTPUT BY A PREVIOUS MODULE IN THE CURRENT DMAP ROUTE.
0*** SYSTEM WARNING MESSAGE 3022
+                                 (SEE PROG. MANUAL SEC. 4.9.7, OR USERS' MANUAL P. 6.5-3)
     DATA BLOCK GPTT     MAY BE REQUIRED AS INPUT AND IS NOT OUTPUT BY A PREVIOUS MODULE IN THE CURRENT DMAP ROUTE.
0*** SYSTEM WARNING MESSAGE 3022
+                                 (SEE PROG. MANUAL SEC. 4.9.7, OR USERS' MANUAL P. 6.5-3)
     DATA BLOCK CSTM     MAY BE REQUIRED AS INPUT AND IS NOT OUTPUT BY A PREVIOUS MODULE IN THE CURRENT DMAP ROUTE.
0*** SYSTEM WARNING MESSAGE 3022
+                                 (SEE PROG. MANUAL SEC. 4.9.7, OR USERS' MANUAL P. 6.5-3)
     DATA BLOCK GPTT     MAY BE REQUIRED AS INPUT AND IS NOT OUTPUT BY A PREVIOUS MODULE IN THE CURRENT DMAP ROUTE.
0*** SYSTEM WARNING MESSAGE 3022
+                                 (SEE PROG. MANUAL SEC. 4.9.7, OR USERS' MANUAL P. 6.5-3)
     DATA BLOCK CSTM     MAY BE REQUIRED AS INPUT AND IS NOT OUTPUT BY A PREVIOUS MODULE IN THE CURRENT DMAP ROUTE.
                        0 ROOTS BELOW   5.050000E-01
                        0 ROOTS BELOW   1.063977E+00
0*** SYSTEM WARNING MESSAGE 3022
+                                 (SEE PROG. MANUAL SEC. 4.9.7, OR USERS' MANUAL P. 6.5-3)
     DATA BLOCK CSTM     MAY BE REQUIRED AS INPUT AND IS NOT OUTPUT BY A PREVIOUS MODULE IN THE CURRENT DMAP ROUTE.
0*** USER INFORMATION MESSAGE FROM PARAML MODULE  - TABLE1   -
     (ALL PARAML MESSAGES CAN BE SUPPRESSED BY DIAG 37)

     INPUT FILE LAMA     RECORD     2 WORD     3             =
+                                                                       0.10639768E+01   = EIGV    
1     DYNAMIC DELAMINATION BUCKLING IN COMPOSITE LAMINATES UDER             /    95 SUN SOLARIS NASTRAN    / MAY 18, 95 / PAGE   287
      NASTRAN TEST PROBLEM NO. T09-07-1A                                                                                            
0     A DYNAMIC TRANSIENT RESPONSE ANALYSIS - IMPACT LOADING                                                                        
0                                                                                                                                   
                                 C O N T E N T S   O F   P A R A M E T E R   T A B L E                                              
                                                                                                                                    
                    EIGV                1.063977E+00
1     DYNAMIC DELAMINATION BUCKLING IN COMPOSITE LAMINATES UDER             /    95 SUN SOLARIS NASTRAN    / MAY 18, 95 / PAGE   288
      NASTRAN TEST PROBLEM NO. T09-07-1A                                                                                            
0     A DYNAMIC TRANSIENT RESPONSE ANALYSIS - IMPACT LOADING                                                                        
 
                                              R E A L   E I G E N V A L U E S

   MODE    EXTRACTION       EIGENVALUE            RADIAN              CYCLIC           GENERALIZED         GENERALIZED
    NO.       ORDER                              FREQUENCY           FREQUENCY            MASS              STIFFNESS

        1         1        1.063977E+00        1.031492E+00        1.641671E-01        1.449446E+00        1.542177E+00             




                                        * * * END OF JOB * * *
1
 JOB TITLE =  DYNAMIC DELAMINATION BUCKLING IN COMPOSITE LAMINATES UDER          
 DATE:  5/18/95
 END TIME: 10:57:36
 TOTAL WALL CLOCK TIME      7 SEC.
 
