





                                  ****
                                *      *
                               *        *
                               *  N A S T R A N
                               *        *
                                *      *
                                  ****


                             SUN COMPUTER SYSTEMS    
                                SOLARIS VERSION

                          SYSTEM RELEASE -  1995 ED.

                                DISTRIBUTED BY

         COMPUTER SOFTWARE MANAGEMENT AND INFORMATION CENTER (COSMIC)
                 UNIVERSITY OF GEORGIA, ATHENS, GEORGIA 30602
                 PHONE: (706)542-3265      FAX: (706)542-4807
1                                                                           /    95 SUN SOLARIS NASTRAN    / MAY 18, 95 / PAGE     2
                                                                                                                                    
0                                                                                                                                   
                                                                                                         
                                                                                                         
                         INSTALLATION CENTER USER INFORMATION GIVEN IN THIS SECTION                      
                                                                                                         
                                     *********************************************                       
                                     *                                           *                       
                                     *  PLEASE READ THE COMMENT IN DEMO PROBLEM  *                       
                                     *  D01002A ABOUT SYSTEM TIMING CONSTANTS    *                       
                                     *                                           *                       
                                     *********************************************                       
                                                                                                         
                         ===X=    TOP OF PAGE REQUEST IF 'X' IS REPLACED BY '='                          
                                                                                                         
1                                                                           /    95 SUN SOLARIS NASTRAN    / MAY 18, 95 / PAGE     3
                                                                                                                                    
0                                                                                                                                   
0*** USER INFORMATION MESSAGE 225, GINO TIME CONSTANTS ARE BEING COMPUTED
     (SEE NASINFO FILE FOR ELIMINATION OF THESE COMPUTATIONS)
1                                                                           /    95 SUN SOLARIS NASTRAN    / MAY 18, 95 / PAGE     4
                                                                                                                                    
0        N A S T R A N    E X E C U T I V E    C O N T R O L    D E C K    E C H O                                                  
0                                                                                                                                   
                                                                                                                                    
                                                                                                                                    
     ID    T09051A,NASTRAN                                                           
     APP   AERO                                                                      
     SOL   9                                                                         
     DIAG  14                                                                        
     TIME  20                                                                        
     CEND                                                                            


0*** USER INFORMATION MESSAGE, TURN DIAG 48 ON FOR NASTRAN RELEASE NEWS, DIAG DEFINITION, NEW DMAP
         MODULES AND NEW BULKDATA CARDS INFORMATION
1     MODAL FLUTTER ANALYSIS OF A ROTOR BLADE                               /    95 SUN SOLARIS NASTRAN    / MAY 18, 95 / PAGE     5
      NASTRAN TEST PROBLEM NO. T09-05-1A                                                                                            
0                                                                                                                                   
0                                        C A S E    C O N T R O L   D E C K   E C H O                                               
                 CARD                                                                                                               
                 COUNT                                                                                                              
                  1      TITLE    = MODAL FLUTTER ANALYSIS OF A ROTOR BLADE                              
                  2      SUBTITLE = NASTRAN TEST PROBLEM NO. T09-05-1A                                   
                  3      SPC     = 500                                                                   
                  4      MPC     = 600                                                                   
                  5      FMETHOD = 30                                                                    
                  6      METHOD  = 10                                                                    
                  7      CMETHOD = 20                                                                    
                  8      DISP = ALL                                                                      
                  9      OUTPUT(XYOUT)                                                                   
                 10      XTITLE  = VELOCITY-V                                                            
                 11      YTTITLE = DAMPING-G                                                             
                 12      YBTITLE = FREQUENCY-F                                                           
                 13      XYPAPERPLOT VG /1(G,F),4(G,F),7(G,F)/2(G,F),5(G,F),8(G,F)/                      
                 14                      3(G,F),6(G,F),9(G,F)                                            
                 15      BEGIN BULK                                                                      


                        (NO. OF UNSORTED BULK DATA CARDS READ =   117, INCLUDING   0 COMMENT CARDS)
0*** USER INFORMATION MESSAGE 207, BULK DATA DECK IS NOT SORTED. NASTRAN WILL RE-ORDER THE INPUT DECK.
1     MODAL FLUTTER ANALYSIS OF A ROTOR BLADE                               /    95 SUN SOLARIS NASTRAN    / MAY 18, 95 / PAGE     6
      NASTRAN TEST PROBLEM NO. T09-05-1A                                                                                            
0                                                                                                                                   
0                                                 S O R T E D   B U L K    D A T A    E C H O                                       
                     CARD                                                                                                           
                     COUNT        ---1--- +++2+++ ---3--- +++4+++ ---5--- +++6+++ ---7--- +++8+++ ---9--- +++10+++                  
                    1-        AERO    0       1.3+4   1.86958 1.507-6                                         
                    2-        CHEXA1  201     1       101     103     104     108     113     115     +CH1    
                    3-        +CH1    116     120                                                             
                    4-        CHEXA1  202     1       108     104     105     107     120     116     +CH2    
                    5-        +CH2    117     119                                                             
                    6-        CHEXA1  203     1       121     123     124     128     101     103     +CH3    
                    7-        +CH3    104     108                                                             
                    8-        CHEXA1  204     1       128     124     125     127     108     104     +CH4    
                    9-        +CH4    105     107                                                             
                   10-        CORD2C  1               0.      0.      0.      1.0     0.      0.      +CD1    
                   11-        +CD1    0.      0.      1.                                                      
                   12-        CTRIA2  1       2000    1       5       4                                       
                   13-        CTRIA2  2       2000    1       2       5                                       
                   14-        CTRIA2  3       2005    2       6       5                                       
                   15-        CTRIA2  4       2005    2       3       6                                       
                   16-        CTRIA2  5       2010    4       8       7                                       
                   17-        CTRIA2  6       2010    4       5       8                                       
                   18-        CTRIA2  7       2015    5       9       8                                       
                   19-        CTRIA2  8       2015    5       6       9                                       
                   20-        CTRIA2  9       2020    7       11      10                                      
                   21-        CTRIA2  10      2020    7       8       11                                      
                   22-        CTRIA2  11      2025    8       12      11                                      
                   23-        CTRIA2  12      2025    8       9       12                                      
                   24-        CYJOIN  1               121     101     113     123     103     115             
                   25-        CYJOIN  2               127     107     119     125     105     117             
                   26-        EIGC    20      HESS    MAX                                             +EIGC20 
                   27-        +EIGC20                                                 4                       
                   28-        EIGR    10      INV     200.0   2000.0  8       5                       +EIGR10 
                   29-        +EIGR10 MAX                                                                     
                   30-        FLFACT  1       .059164 .118328 .177492                                         
                   31-        FLFACT  2       180.0                                                           
                   32-        FLFACT  3       0.3     0.7     1.0                                             
                   33-        FLUTTER 30      K       1       2       3       L       4                       
                   34-        GRID    1               -0.8979 -0.2814 3.7712                                  
                   35-        GRID    2               0.0001  0.0516  4.0003                                  
                   36-        GRID    3               0.8981  -0.2461 4.1795                                  
                   37-        GRID    4               -0.7726 -0.4744 5.4413                                  
                   38-        GRID    5               -0.0031 0.0228  5.5033                                  
                   39-        GRID    6               0.7797  0.2247  5.4889                                  
                   40-        GRID    7               -0.6646 -0.7082 7.3062                                  
                   41-        GRID    8               -0.0157 0.0164  7.4058                                  
                   42-        GRID    9               0.6303  0.5962  7.3237                                  
                   43-        GRID    10              -0.5237 -1.1552 9.8520                                  
                   44-        GRID    11              -0.0320 -0.0656 10.0079                                 
                   45-        GRID    12              0.4130  0.7329  9.9093                                  
                   46-        GRID    101     1       2.375   4.186   -0.987  1                               
                   47-        GRID    103     1       2.375   4.186   0.987   1                               
1     MODAL FLUTTER ANALYSIS OF A ROTOR BLADE                               /    95 SUN SOLARIS NASTRAN    / MAY 18, 95 / PAGE     7
      NASTRAN TEST PROBLEM NO. T09-05-1A                                                                                            

                                                                                                                                    

                                                  S O R T E D   B U L K    D A T A    E C H O                                       
                     CARD                                                                                                           
                     COUNT        ---1--- +++2+++ ---3--- +++4+++ ---5--- +++6+++ ---7--- +++8+++ ---9--- +++10+++                  
                   48-        GRID    104     1       2.375   0.0     0.987   1                               
                   49-        GRID    105     1       2.375   -4.186  0.987   1                               
                   50-        GRID    107     1       2.375   -4.186  -0.987  1                               
                   51-        GRID    108     1       2.375   0.0     -0.987  1                               
                   52-        GRID    113     1       3.982   4.186   -0.987  1                               
                   53-        GRID    115     1       4.539   4.186   0.987   1                               
                   54-        GRID    116     1       4.539   0.0     0.987                                   
                   55-        GRID    117     1       4.539   -4.186  0.987   1                               
                   56-        GRID    119     1       3.982   -4.186  -0.987  1                               
                   57-        GRID    120     1       3.982   0.0     -0.987                                  
                   58-        GRID    121     1       0.905   4.186   -0.987  1                               
                   59-        GRID    123     1       0.905   4.186   0.987   1                               
                   60-        GRID    124     1       0.905   0.0     0.987   1                               
                   61-        GRID    125     1       0.905   -4.186  0.987   1                               
                   62-        GRID    127     1       0.905   -4.186  -0.987  1                               
                   63-        GRID    128     1       0.905   0.0     -0.987  1                               
                   64-        MAT1    1       31.0E6          0.3     7.300E-4                                
                   65-        MKAERO1 180.0                                                           +MKA1   
                   66-        +MKA1   0.3     0.7     1.0                                                     
                   67-        MPC     600     1       1       1.0     2       1       -1.0                    
                   68-        MPC     600     1       2       1.0     2       2       -1.0                    
                   69-        MPC     600     1       3       1.0     2       3       -1.0                    
                   70-        MPC     600     1       4       1.0     2       4       -1.0                    
                   71-        MPC     600     1       5       1.0     2       5       -1.0                    
                   72-        MPC     600     1       6       1.0     2       6       -1.0                    
                   73-        MPC     600     3       1       1.0     2       1       -1.0                    
                   74-        MPC     600     3       2       1.0     2       2       -1.0                    
                   75-        MPC     600     3       3       1.0     2       3       -1.0                    
                   76-        MPC     600     3       4       1.0     2       4       -1.0                    
                   77-        MPC     600     3       5       1.0     2       5       -1.0                    
                   78-        MPC     600     3       6       1.0     2       6       -1.0                    
                   79-        MPC     600     116     1       1.0     2       1       -1.0                    
                   80-        MPC     600     116     2       1.0     2       2       -1.0                    
                   81-        MPC     600     116     3       1.0     2       3       -1.0                    
                   82-        MPC     600     120     1       1.0     2       1       -1.0                    
                   83-        MPC     600     120     2       1.0     2       2       -1.0                    
                   84-        MPC     600     120     3       1.0     2       3       -1.0                    
                   85-        PARAM   CTYPE   ROT                                                             
                   86-        PARAM   IREF    4                                                               
                   87-        PARAM   KGGIN   -1                                                              
                   88-        PARAM   KINDEX  0                                                               
                   89-        PARAM   LMODES  4                                                               
                   90-        PARAM   MAXMACH 0.90                                                            
                   91-        PARAM   MINMACH 1.00                                                            
                   92-        PARAM   MTYPE   COSINE                                                          
                   93-        PARAM   NSEGS   43                                                              
                   94-        PARAM   PRINT   YESB                                                            
1     MODAL FLUTTER ANALYSIS OF A ROTOR BLADE                               /    95 SUN SOLARIS NASTRAN    / MAY 18, 95 / PAGE     8
      NASTRAN TEST PROBLEM NO. T09-05-1A                                                                                            

                                                                                                                                    

                                                  S O R T E D   B U L K    D A T A    E C H O                                       
                     CARD                                                                                                           
                     COUNT        ---1--- +++2+++ ---3--- +++4+++ ---5--- +++6+++ ---7--- +++8+++ ---9--- +++10+++                  
                   95-        PTRIA2  2000    1       0.1040  0.                                              
                   96-        PTRIA2  2005    1       0.1040  0.                                              
                   97-        PTRIA2  2010    1       0.0707  0.                                              
                   98-        PTRIA2  2015    1       0.0707  0.                                              
                   99-        PTRIA2  2020    1       0.0422  0.                                              
                  100-        PTRIA2  2025    1       0.0422  0.                                              
                  101-        SPC1    500     23      121     123     124     125     127     128             
                  102-        SPC1    500     45      7       10      12                                      
                  103-        SPC1    500     456     101     103     104     105     107     108             
                  104-        SPC1    500     456     113     115     116     117     119     120             
                  105-        SPC1    500     456     121     123     124     125     127     128             
                  106-        STREAML11       1       2       3                                               
                  107-        STREAML12       4       5       6                                               
                  108-        STREAML13       7       8       9                                               
                  109-        STREAML14       10      11      12                                              
                  110-        STREAML21       3       2.739   1.79600 3.98420 0.58217 0.6568460.069472+STRL 1 
                  111-        +STRL 1 719.0   47.423                                                          
                  112-        STREAML22       3       23.534  1.85044 6.06853 0.88674 0.9343880.066610+STRL 2 
                  113-        +STRL 2 1014.2  55.107                                                          
                  114-        STREAML23       3       44.697  1.86419 8.07620 1.18010 1.1936660.064685+STRL 3 
                  115-        +STRL 3 1288.1  60.380                                                          
                  116-        STREAML24       3       62.028  1.86958 9.92791 1.45067 1.5022760.059201+STRL 4 
                  117-        +STRL 4 1592.6  60.687                                                          
                              ENDDATA
1     MODAL FLUTTER ANALYSIS OF A ROTOR BLADE                               /    95 SUN SOLARIS NASTRAN    / MAY 18, 95 / PAGE     9
      NASTRAN TEST PROBLEM NO. T09-05-1A                                                                                            
0                                                                                                                                   
0         COSMIC / NASTRAN DMAP COMPILER - SOURCE LISTING                                                                           
                                                                                                                                    
                                                                                                                                    
0  OPTIONS IN EFFECT GO      ERR=2   LIST    NODECK  NOREF   NOOSCAR 
   -----------------


       1  BEGIN    AERO 09 - BLADE CYCLIC MODAL FLUTTER ANALYSIS - APR. 1995 $    

       2  PRECHK   ALL $                                                          

       3  FILE     PHIHL=APPEND/AJJL=APPEND/FSAVE=APPEND/CASEYY=APPEND/CLAMAL=    
                   APPEND/OVG=APPEND/QHHL=APPEND $                                

       4  PARAM    //*MPY*/CARDNO/0/0 $                                           

       5  GP1      GEOM1,GEOM2,/GPL,EQEXIN,GPDT,CSTM,BGPDT,SIL/S,N,LUSET/S,N,     
                   NOGPDT/MINUS1=-1 $                                             

       6  ANISOP   GEOM1,EPT,BGPDT,EQEXIN,MPT/MPTA/S,N,ISOP $                     

       7  EQUIV    MPTA,MPT/ISOP $                                                

       8  COND     ERROR5,NOGPDT $                                                

       9  GP2      GEOM2,EQEXIN/ECT $                                             

      10  GP3      GEOM3,EQEXIN,GEOM2/,GPTT/NOGRAV $                              

      11  TA1      ECT,EPT,BGPDT,SIL,GPTT,CSTM,MPT,EQEXIN/EST,GEI,GPECT,,,MPTX,   
                   PCOMPS,EPTX/LUSET/S,N,NOSIMP/1/S,N,NOGENL/GENEL/S,N,COMPS $    

      12  EQUIV    MPTX,MPT/COMPS/EPTX,EPT/COMPS $                                

      13  COND     ERROR5,NOSIMP $                                                

      14  PARAM    //*ADD*/NOKGGX/1/0 $                                           

      15  PARAM    //*ADD*/NOMGG/1/0 $                                            

      16  PARAM    //*NOP*/V,Y,KGGIN=-1 $                                         

      17  COND     JMPKGGIN,KGGIN $                                               

      18  PARAM    //*ADD*/NOKGGX/-1/0 $                                          

      19  INPUTT1  /KTOTAL,,,,/C,Y,LOCATION=-1/C,Y,INPTUNIT=0 $                   

      20  EQUIV    KTOTAL,KGGX $                                                  
1     MODAL FLUTTER ANALYSIS OF A ROTOR BLADE                               /    95 SUN SOLARIS NASTRAN    / MAY 18, 95 / PAGE    10
      NASTRAN TEST PROBLEM NO. T09-05-1A                                                                                            

                                                                                                                                    

          COSMIC / NASTRAN DMAP COMPILER - SOURCE LISTING                                                                           
                                                                                                                                    
                                                                                                                                    

      21  LABEL    JMPKGGIN $                                                     

      22  EMG      EST,CSTM,MPT,DIT,GEOM2,/KELM,KDICT,MELM,MDICT,,,/S,N,NOKGGX/   
                   S,N,NOMGG////C,Y,COUPMASS/C,Y,CPBAR/C,Y,CPROD/                 
                   C,Y,CPQUAD1/C,Y,CPQUAD2/C,Y,CPTRIA1/C,Y,CPTRIA2/C,Y,CPTUBE/    
                   C,Y,CPQDPLT/C,Y,CPTRPLT/C,Y,CPTRBSC/                           
                   C,Y,VOLUME/C,Y,SURFACE $                                       

      23  COND     JMPKGGX,NOKGGX $                                               

      24  EMA      GPECT,KDICT,KELM/KGGX $                                        

      25  PURGE    KDICT,KELM/MINUS1 $                                            

      26  LABEL    JMPKGGX $                                                      

      27  COND     ERROR1,NOMGG $                                                 

      28  EMA      GPECT,MDICT,MELM/MGG/-1/C,Y,WTMASS=1.0 $                       

      29  PURGE    MDICT,MELM/MINUS1 $                                            

      30  COND     LGPWG,GRDPNT $                                                 

      31  GPWG     BGPDT,CSTM,EQEXIN,MGG/OGPWG/V,Y,GRDPNT=-1/C,Y,WTMASS $         

      32  OFP      OGPWG,,,,,//S,N,CARDNO $                                       

      33  LABEL    LGPWG $                                                        

      34  EQUIV    KGGX,KGG/NOGENL $                                              

      35  COND     LBL11,NOGENL $                                                 

      36  SMA3     GEI,KGGX/KGG/LUSET/NOGENL/NOSIMP $                             

      37  LABEL    LBL11 $                                                        

      38  GPSTGEN  KGG,SIL/GPST $                                                 

      39  GP4      CASECC,GEOM4,EQEXIN,GPDT,BGPDT,CSTM,GPST/RG,,USET,             
                   ASET,OGPST/LUSET/S,N,MPCF1/S,N,MPCF2/S,N,SINGLE/S,N,OMIT/      
                   S,N,REACT/0/S,N,REPEAT/S,N,NOSET/S,N,NOL/S,N,NOA/              
                   C,Y,ASETOUT/C,Y,AUTOSPC $                                      

      40  OFP      OGPST,,,,,//S,N,CARDNO $                                       
1     MODAL FLUTTER ANALYSIS OF A ROTOR BLADE                               /    95 SUN SOLARIS NASTRAN    / MAY 18, 95 / PAGE    11
      NASTRAN TEST PROBLEM NO. T09-05-1A                                                                                            

                                                                                                                                    

          COSMIC / NASTRAN DMAP COMPILER - SOURCE LISTING                                                                           
                                                                                                                                    
                                                                                                                                    

      41  PARAM    //*NOT*/REACDATA/REACT $                                       

      42  COND     ERROR6,REACDATA $                                              

      43  PURGE    GM,GMD/MPCF1/GO,GOD/OMIT/KFS,QPC/SINGLE $                      

      44  GPCYC    GEOM4,EQEXIN,USET/CYCD/V,Y,CTYPE/S,N,NOGO $                    

      45  COND     ERROR7,NOGO $                                                  

      46  EQUIV    KGG,KNN/MPCF1/MGG,MNN/MPCF1 $                                  

      47  COND     LBL2,MPCF1 $                                                   

      48  MCE1     USET,RG/GM $                                                   

      49  MCE2     USET,GM,KGG,MGG,,/KNN,MNN,, $                                  

      50  LABEL    LBL2 $                                                         

      51  EQUIV    KNN,KFF/SINGLE/MNN,MFF/SINGLE $                                

      52  COND     LBL3,SINGLE $                                                  

      53  SCE1     USET,KNN,MNN,,/KFF,KFS,,MFF,, $                                

      54  LABEL    LBL3 $                                                         

      55  EQUIV    KFF,KAA/OMIT/MFF,MAA/OMIT $                                    

      56  COND     LBL5,OMIT $                                                    

      57  SMP1     USET,KFF,,,/GO,KAA,KOO,LOO,,,,, $                              

      58  SMP2     USET,GO,MFF/MAA $                                              

      59  LABEL    LBL5 $                                                         

      60  DPD      DYNAMICS,GPL,SIL,USET/GPLD,SILD,USETD,TFPOOL,,,,,,EED,EQDYN/   
                   LUSET/S,N,LUSETD/NOTFL/NODLT/NOPSDL/NOFRL/                     
                   NONLFT/NOTRL/S,N,NOEED//S,N,NOUE $                             

      61  COND     ERROR2,NOEED $                                                 

      62  EQUIV    GO,GOD/NOUE/GM,GMD/NOUE $                                      
1     MODAL FLUTTER ANALYSIS OF A ROTOR BLADE                               /    95 SUN SOLARIS NASTRAN    / MAY 18, 95 / PAGE    12
      NASTRAN TEST PROBLEM NO. T09-05-1A                                                                                            

                                                                                                                                    

          COSMIC / NASTRAN DMAP COMPILER - SOURCE LISTING                                                                           
                                                                                                                                    
                                                                                                                                    

      63  CYCT2    CYCD,KAA,MAA,,,/KKK,MKK,,,/*FORE*/V,Y,NSEGS=-1/V,Y,            
                   KINDEX=-1/V,Y,CYCSEQ=-1/1/S,N,NOGO $                           

      64  COND     ERROR7,NOGO $                                                  

      65  READ     KKK,MKK,,,EED,,CASECC/LAMK,PHIK,  ,OEIGS/*MODES*/S,N,          
                   NEIGV $                                                        

      66  OFP      OEIGS,LAMK,,,,//S,N,CARDNO $                                   

      67  COND     ERROR4,NEIGV $                                                 

      68  CYCT2    CYCD,,,,PHIK,LAMK/,,,PHIA,LAMA/*BACK*/V,Y,NSEGS/V,Y,           
                   KINDEX/V,Y,CYCSEQ/1/S,N,NOGO $                                 

      69  COND     ERROR7,NOGO $                                                  

      70  SDR1     USET,,PHIA,,,GO,GM,,KFS,,/PHIG,,/1/*REIG* $                    

      71  SDR2     CASECC,CSTM,MPT,DIT,EQEXIN,SIL,,,BGPDT,LAMA,,PHIG,EST,,,/      
                   ,,OPHIG,,,PPHIG,,/*REIG* $                                     

      72  OFP      OPHIG,,,,,//S,N,CARDNO $                                       

      73  PARAML   PCDB//*PRES*////JUMPPLOT $                                     

      74  PURGE    PLTSETZ,PLTPARZ,GPSETSZ,ELSETSZ/JUMPPLOT $                     

      75  COND     PZZ,JUMPPLOT $                                                 

      76  PLTSET   PCDB,EQEXIN,ECT,EPT/PLTSETZ,PLTPARZ,GPSETSZ,ELSETSZ/           
                   S,N,NSILZ/S,N,JUMPZ=-1 $                                       

      77  PRTMSG   PLTSETZ// $                                                    

      78  COND     PZZ,JUMPZ $                                                    

      79  PLOT     PLTPARZ,GPSETSZ,ELSETSZ,CASECC,BGPDT,EQEXIN,SIL,,PPHIG,,,,/    
                   PLOTZ/NSILZ/LUSET/JUMPZ/PLTFLGZ=-1/S,N,PFILEZ=0 $              

      80  PRTMSG   PLOTZ// $                                                      

      81  LABEL    PZZ $                                                          

      82  APDB     EDT,USET,BGPDT,CSTM,EQEXIN,GM,GO/AERO,ACPT,FLIST,GTKA,PVECT/   
1     MODAL FLUTTER ANALYSIS OF A ROTOR BLADE                               /    95 SUN SOLARIS NASTRAN    / MAY 18, 95 / PAGE    13
      NASTRAN TEST PROBLEM NO. T09-05-1A                                                                                            
0                                                                                                                                   
0         COSMIC / NASTRAN DMAP COMPILER - SOURCE LISTING                                                                           
                                                                                                                                    
                                                                                                                                    
                   S,N,NK/S,N,NJ/V,Y,MINMACH/V,Y,MAXMACH/V,Y,IREF/V,Y,MTYPE/      
                   NEIGV/V,Y,KINDEX    $                                          

      83  PARTN    PHIA,PVECT,/PHIAX,,,/1 $                                       

      84  SMPYAD   PHIAX,MAA,PHIAX,,,/MI/3/1/1/0/1 $                              

      85  MTRXIN   CASECC,MATPOOL,EQDYN,,TFPOOL/K2PP,M2PP,B2PP/LUSETD/S,N,        
                   NOK2PP/S,N,NOM2PP/S,N,NOB2PP $                                 

      86  PURGE    K2DD/NOK2PP/M2DD/NOM2PP/B2DD/NOB2PP $                          

      87  EQUIV    M2PP,M2DD/NOSET/B2PP,B2DD/NOSET/K2PP,K2DD/NOSET $              

      88  GKAD     USETD,GM,GO,,,,,K2PP,M2PP,B2PP/,,,GMD,GOD,K2DD,M2DD,B2DD/      
                   *CMPLEV*/*DISP*/*MODAL*/0.0/0.0/0.0/NOK2PP/                    
                   NOM2PP/NOB2PP/MPCF1/SINGLE/OMIT/NOUE/                          
                   -1/-1/-1/-1 $                                                  

      89  GKAM     USETD,PHIAX,MI,LAMK,DIT,M2DD,B2DD,K2DD,CASECC/MHH,BHH,KHH,     
                   PHIDH/NOUE/C,Y,LMODES=999999/C,Y,LFREQ=0.0/C,Y,HFREQ=0.0/      
                   NOM2PP/NOB2PP/NOK2PP/S,N,NONCUP/S,N,FMODE/C,Y,                 
                   KDAMP=-1 $                                                     

      90  PURGE    PLTSETX,PLTPAR,GPSETS,ELSETS/JUMPPLOT $                        

      91  COND     P2,JUMPPLOT $                                                  

      92  PLTSET   PCDB,EQDYN,ECT,/PLTSETX,PLTPAR,GPSETS,ELSETS/S,N,NSIL1/S,N,    
                   JUMPPLOT $                                                     

      93  PRTMSG   PLTSETX//$                                                     

      94  PARAM    //*MPY*/PLTFLG/1/1 $                                           

      95  PARAM    //*MPY*/PFILE/0/0 $                                            

      96  COND     P2,JUMPPLOT $                                                  

      97  PLOT     PLTPAR,GPSETS,ELSETS,CASECC,BGPDT,EQDYN,,,,,,,/PLOTX1/NSIL1/   
                   LUSET/S,N,JUMPPLOT/S,N,PLTFLG/S,N,PFILE $                      

      98  PRTMSG   PLOTX1//$                                                      

      99  LABEL    P2 $                                                           

     100  PARAM    //*ADD*/DESTRY/0/1 $                                           
1     MODAL FLUTTER ANALYSIS OF A ROTOR BLADE                               /    95 SUN SOLARIS NASTRAN    / MAY 18, 95 / PAGE    14
      NASTRAN TEST PROBLEM NO. T09-05-1A                                                                                            

                                                                                                                                    

          COSMIC / NASTRAN DMAP COMPILER - SOURCE LISTING                                                                           
                                                                                                                                    
                                                                                                                                    

     101  AMG      AERO,ACPT/AJJL,SKJ,D1JK,D2JK/NK/NJ/S,N,DESTRY $                

     102  PURGE    D1JE,D2JE/NODJE $                                              

     103  COND     NODJE,NODJE $                                                  

     104  INPUTT2  /D1JE,D2JE,,,/C,Y,POSITION=-1/C,Y,UNITNUM=11/C,Y,USRLABEL=     
                   TAPEID $                                                       

     105  LABEL    NODJE $                                                        

     106  PARAM    //*ADD*/XQHHL/1/0 $                                            

     107  AMP      AJJL,SKJ,D1JK,D2JK,GTKA,PHIDH,D1JE,D2JE,USETD,AERO/QHHL,,/     
                   NOUE/S,N,XQHHL $                                               

     108  PARAM    //*MPY*/NOP/1/1 $                                              

     109  PARAM    //*MPY*/NOH/0/1 $                                              

     110  PARAM    //*MPY*/FLOOP/V,Y,NODJE=-1/0 $                                 

     111  LABEL    LOOPTOP $                                                      

     112  FA1      KHH,BHH,MHH,QHHL,CASECC,FLIST/FSAVE,KXHH,BXHH,MXHH/S,N,FLOOP/  
                   S,N,TSTART/S,N,NOCEAD $                                        

     113  EQUIV    KXHH,PHIH/NOCEAD/BXHH,CLAMA/NOCEAD/                            
                   KXHH,PHIHL/NOCEAD/BXHH,CLAMAL/NOCEAD/                          
                   CASECC,CASEYY/NOCEAD $                                         

     114  COND     VDR,NOCEAD $                                                   

     115  CEAD     KXHH,BXHH,MXHH,EED,CASECC/PHIH,CLAMA,OCEIGS,/S,N,EIGVS $       

     116  COND     LBLZAP,EIGVS $                                                 

     117  LABEL    VDR $                                                          

     118  VDR      CASECC,EQDYN,USETD,PHIH,CLAMA,,/OPHIH,/*CEIGEN*/*MODAL*/       
                   123/S,N,NOH/S,N,NOP/FMODE $                                    

     119  COND     LBL16,NOH $                                                    

     120  OFP      OPHIH,,,,,//S,N,CARDNO $                                       
1     MODAL FLUTTER ANALYSIS OF A ROTOR BLADE                               /    95 SUN SOLARIS NASTRAN    / MAY 18, 95 / PAGE    15
      NASTRAN TEST PROBLEM NO. T09-05-1A                                                                                            

                                                                                                                                    

          COSMIC / NASTRAN DMAP COMPILER - SOURCE LISTING                                                                           
                                                                                                                                    
                                                                                                                                    

     121  LABEL    LBL16 $                                                        

     122  FA2      PHIH,CLAMA,FSAVE/PHIHL,CLAMAL,CASEYY,OVG/S,N,TSTART/C,Y,VREF=  
                   1.0/C,Y,PRINT=YESB $                                           

     123  COND     CONTINUE,TSTART $                                              

     124  LABEL    LBLZAP $                                                       

     125  COND     CONTINUE,FLOOP $                                               

     126  REPT     LOOPTOP,100  $                                                 

     127  JUMP     ERROR3 $                                                       

     128  LABEL    CONTINUE $                                                     

     129  PARAML   XYCDB//*PRES*////NOXYCDB $                                     

     130  COND     NOXYOUT,NOXYCDB $                                              

     131  XYTRAN   XYCDB,OVG,,,,/XYPLTCE/*VG*/*PSET*/S,N,PFILE/S,N,CARDNO $       

     132  XYPLOT   XYPLTCE//$                                                     

     133  LABEL    NOXYOUT $                                                      

     134  PARAM    //*AND*/PJUMP/NOP=-1/JUMPPLOT $                                

     135  COND     FINIS,PJUMP $                                                  

     136  MODACC   CASEYY,CLAMAL,PHIHL,CASECC,,/CLAMAL1,CPHIH1,CASEZZ,,/          
                   *CEIGN* $                                                      

     137  DDR1     CPHIH1,PHIDH/CPHID $                                           

     138  EQUIV    CPHID,CPHIP/NOA $                                              

     139  COND     LBL14,NOA $                                                    

     140  SDR1     USETD,,CPHID,,,GOD,GMD,,KFS,,/CPHIP,,QPC/1/*DYNAMICS* $        

     141  LABEL    LBL14 $                                                        

     142  EQUIV    CPHID,CPHIA/NOUE $                                             
1     MODAL FLUTTER ANALYSIS OF A ROTOR BLADE                               /    95 SUN SOLARIS NASTRAN    / MAY 18, 95 / PAGE    16
      NASTRAN TEST PROBLEM NO. T09-05-1A                                                                                            

                                                                                                                                    

          COSMIC / NASTRAN DMAP COMPILER - SOURCE LISTING                                                                           
                                                                                                                                    
                                                                                                                                    

     143  COND     LBLNOE,NOUE $                                                  

     144  VEC      USETD/RP/*D*/*A*/*E* $                                         

     145  PARTN    CPHID,,RP/CPHIA,,,/1/3 $                                       

     146  LABEL    LBLNOE $                                                       

     147  SDR2     CASEZZ,CSTM,MPT,DIT,EQDYN,SILD,,,BGPDT,CLAMAL1,QPC,CPHIP,      
                   EST,,,/,OQPC1,OCPHIP,OESC1,OEFC1,PCPHIP,,/*CEIGN* $            

     148  OFP      OCPHIP,OQPC1,OESC1,OEFC1,,//S,N,CARDNO $                       

     149  COND     P3,JUMPPLOT $                                                  

     150  PLOT     PLTPAR,GPSETS,ELSETS,CASEZZ,BGPDT,EQDYN,SILD,,PCPHIP,,,,/      
                   PLOTX3/NSIL1/LUSET/JUMPPLOT/PLTFLG/PFILE $                     

     151  PRTMSG   PLOTX3//$                                                      

     152  LABEL    P3 $                                                           

     153  JUMP     FINIS $                                                        

     154  LABEL    ERROR1 $                                                       

     155  PRTPARM  //-1/*BLADEMDS* $                                              

     156  LABEL    ERROR2 $                                                       

     157  PRTPARM  //-2/*BLADEMDS* $                                              

     158  LABEL    ERROR3 $                                                       

     159  PRTPARM  //-3/*BLADEMDS* $                                              

     160  LABEL    ERROR4 $                                                       

     161  PRTPARM  //-4/*BLADEMDS* $                                              

     162  LABEL    ERROR5 $                                                       

     163  PRTPARM  //-5/*BLADEMDS* $                                              

     164  LABEL    ERROR6 $                                                       
1     MODAL FLUTTER ANALYSIS OF A ROTOR BLADE                               /    95 SUN SOLARIS NASTRAN    / MAY 18, 95 / PAGE    17
      NASTRAN TEST PROBLEM NO. T09-05-1A                                                                                            

                                                                                                                                    

          COSMIC / NASTRAN DMAP COMPILER - SOURCE LISTING                                                                           
                                                                                                                                    
                                                                                                                                    

     165  PRTPARM  //-6/*BLADEMDS* $                                              

     166  LABEL    ERROR7 $                                                       

     167  PRTPARM  //-7/*BLADEMDS* $                                              

     168  LABEL    FINIS $                                                        

     169  PURGE    DUMMY/MINUS1 $                                                 

     170  END      $                                                              
1     MODAL FLUTTER ANALYSIS OF A ROTOR BLADE                               /    95 SUN SOLARIS NASTRAN    / MAY 18, 95 / PAGE    18
      NASTRAN TEST PROBLEM NO. T09-05-1A                                                                                            
0                                                                                                                                   
0*** USER INFORMATION MESSAGES FROM RESEQUENCING PROCESSOR - BANDIT     (CRI= 1,  MTH= 3,  MPC= 0,  DEP=-1,  PCH=-1)

                               BEFORE RESEQUENCING - - -
                                        BANDWIDTH           18
                                        PROFILE            206
                                        MAX WAVEFRONT       16
                                        AVG WAVEFRONT    6.867
                                        RMS WAVEFRONT    8.091
                                        RMS BANDWIDTH    8.343

                               AFTER RESEQUENCING BY GIBBS-POOLE-STOCKMEYER (GPS) ALGORITHM - - -
                                        BANDWIDTH           14
                                        PROFILE            159
                                        MAX WAVEFRONT       10
                                        AVG WAVEFRONT    5.300
                                        RMS WAVEFRONT    5.913
                                        RMS BANDWIDTH    6.348


                                                     *** BANDIT SUMMARY ***

                                                                        BEFORE     AFTER
                                        BANDWIDTH (B)                       18        14
                                        PROFILE (P)                        206       159
                                        MAXIMUM WAVEFRONT (C-MAX)           16        10
                                        AVERAGE WAVEFRONT (C-AVG)        6.867     5.300
                                        RMS WAVEFRONT (C-RMS)            8.091     5.913
                                        RMS BANDWITCH (B-RMS)            8.343     6.348
                                        NUMBER OF GRID POINTS (N)                     30
                                        NUMBER OF ELEMENTS (NON-RIGID)                16
                                        NUMBER OF RIGID ELEMENTS PROCESSED*            0
                                        NUMBER OF MPC  EQUATIONS PROCESSED*            0
                                        NUMBER OF COMPONENTS                           2
                                        MAXIMUM NODAL DEGREE                          17
                                        MINIMUM NODAL DEGREE                           2
                                        NUMBER OF UNIQUE EDGES                       112
                                        MATRIX DENSITY, PERCENT                   28.222
                                        NUMBER OF POINTS OF ZERO DEGREE                0
                                        BANDIT OPEN CORE                         1998969
                                        CRITERION*                         RMS WAVEFRONT
                                        METHOD USED*                                 GPS
                                        NO. OF SEQGP CARDS GENERATED                   8

                               (* THESE DEFAULT OPTIONS CAN BE OVERRIDDEN BY THE NASTRAN CARD)
1     MODAL FLUTTER ANALYSIS OF A ROTOR BLADE                               /    95 SUN SOLARIS NASTRAN    / MAY 18, 95 / PAGE    19
      NASTRAN TEST PROBLEM NO. T09-05-1A                                                                                            
0                                                                                                                                   


                                   S Y S T E M  G E N E R A T E D  S E Q G P  C A R D S

                         SEQGP          1       4       2       2       3       1       4       7
                         SEQGP          5       5       6       3       7      10       8       8
                         SEQGP          9       6      10      12      11      11      12       9
                         SEQGP        101      23     103      24     104      25     105      19
                         SEQGP        107      20     108      26     113      13     115      14
                         SEQGP        116      15     117      17     119      18     120      16
                         SEQGP        121      30     123      29     124      28     125      21
                         SEQGP        127      22     128      27
0         **NO ERRORS FOUND - EXECUTE NASTRAN PROGRAM**
0*** USER INFORMATION MESSAGE 238, TURN DIAG 38 ON FOR ADDITIONAL ELEMENT PROCESSING INFORMATION

0*** USER INFORMATION MESSAGE 3113,
     EMG MODULE PROCESSING DOUBLE PRECISION HEXA1    ELEMENTS (ELEMENT TYPE  41) STARTING WITH ID      201
0*** USER INFORMATION MESSAGE 3113,
     EMG MODULE PROCESSING DOUBLE PRECISION TRIA2    ELEMENTS (ELEMENT TYPE  17) STARTING WITH ID        1
                        3 ROOTS BELOW   4.066277E+07
                        2 ROOTS BELOW   2.953738E+07
                        1 ROOTS BELOW   9.989824E+06
                        0 ROOTS BELOW   2.750434E+06
                        4 ROOTS BELOW   1.152644E+08
                        5 ROOTS BELOW   1.704405E+08
1     MODAL FLUTTER ANALYSIS OF A ROTOR BLADE                               /    95 SUN SOLARIS NASTRAN    / MAY 18, 95 / PAGE    20
      NASTRAN TEST PROBLEM NO. T09-05-1A                                                                                            
0                                                                                                                                   
 
 
                              E I G E N V A L U E   A N A L Y S I S   S U M M A R Y     (INVERSE POWER METHOD)
0
0                                       NUMBER OF EIGENVALUES EXTRACTED  . . . . . .         5
0                                       NUMBER OF STARTING POINTS USED . . . . . . .         1
0                                       NUMBER OF STARTING POINT MOVES . . . . . . .         0
0                                       NUMBER OF TRIANGULAR DECOMPOSITIONS  . . . .         6
0                                       TOTAL NUMBER OF VECTOR ITERATIONS  . . . . .        41

0                                       REASON FOR TERMINATION . . . . . . . . . . .         7*

0                                       LARGEST OFF-DIAGONAL MODAL MASS TERM . . . .  0.00E+00
0                                                                              . . .         0
                                                  MODE PAIR . . . . . . . . . .
                                                                               . . .         0
0                                       NUMBER OF OFF-DIAGONAL MODAL MASS
                                             TERMS FAILING CRITERION . . . . . . . .         0

0                                       (* 1 OR MORE ROOT OUTSIDE FR.RANGE.
                                         SEE NASTRAN U.M. VOL II, SECTION 2.3.3)
1     MODAL FLUTTER ANALYSIS OF A ROTOR BLADE                               /    95 SUN SOLARIS NASTRAN    / MAY 18, 95 / PAGE    21
      NASTRAN TEST PROBLEM NO. T09-05-1A                                                                                            
0                                                                                                                                   
 
                                              R E A L   E I G E N V A L U E S

   MODE    EXTRACTION       EIGENVALUE            RADIAN              CYCLIC           GENERALIZED         GENERALIZED
    NO.       ORDER                              FREQUENCY           FREQUENCY            MASS              STIFFNESS


                                     ****************************************************************
                                     *                                                              *
                                     *
+                                       NASTRAN INFORMATION MESSAGE 3308, LOWEST EIGENVALUE FOUND   *
                                     *  AS INDICATED BY THE STURM'S SEQUENCE OF THE DYNAMIC MATRIX  *
                                     *                                                              *
                                     *        (THIS MESSAGE CAN BE SUPPRESSED BY DIAG 37)           *
                                     ****************************************************************

        1         3        2.750440E+06        1.658445E+03        2.639497E+02        0.0                 0.0                      
        2         2        1.002666E+07        3.166491E+03        5.039627E+02        0.0                 0.0                      
        3         1        2.953982E+07        5.435054E+03        8.650157E+02        0.0                 0.0                      
        4         4        1.152644E+08        1.073612E+04        1.708707E+03        0.0                 0.0                      
        5         5        1.703117E+08        1.305035E+04        2.077028E+03        0.0                 0.0                      
1     MODAL FLUTTER ANALYSIS OF A ROTOR BLADE                               /    95 SUN SOLARIS NASTRAN    / MAY 18, 95 / PAGE    22
      NASTRAN TEST PROBLEM NO. T09-05-1A                                                                                            
0                                                                                                                                   
      EIGENVALUE =  0.275044E+07    (CYCLIC FREQUENCY =  2.639497E+02 HZ)

                                         R E A L   E I G E N V E C T O R   N O .          1
 
      POINT ID.   TYPE          T1             T2             T3             R1             R2             R3
             1      G     -1.008953E-04   4.014370E-04  -4.120846E-05  -3.119369E-02   2.116814E-03   7.146824E-03                  
             2      G     -1.008953E-04   4.014370E-04  -4.120846E-05  -3.119369E-02   2.116814E-03   7.146824E-03                  
             3      G     -1.008953E-04   4.014370E-04  -4.120846E-05  -3.119369E-02   2.116814E-03   7.146824E-03                  
             4      G     -5.969279E-02   1.159025E-01   1.844799E-02   9.528162E-02  -3.820274E-01  -1.288756E-01                  
             5      G     -1.955961E-02   5.591340E-02   3.527669E-04  -4.240234E-02  -6.139410E-02  -8.642721E-02                  
             6      G     -3.857643E-03  -4.518311E-03   2.240696E-03   1.340556E-02  -6.927564E-02  -6.291339E-02                  
             7      G     -2.203361E-01   3.679816E-01   5.996870E-02   0.0            0.0           -1.766986E-01                  
             8      G     -1.218748E-01   2.880024E-01  -5.569418E-05  -2.790685E-01   1.625334E-01  -1.604986E-01                  
             9      G     -2.651471E-02   1.768572E-01  -3.579283E-02  -1.940567E-01   8.532045E-02  -1.890912E-01                  
            10      G     -7.227613E-01   9.916431E-01   1.975125E-01   0.0            0.0           -7.758260E-02                  
            11      G     -6.846546E-01   1.000000E+00   1.869314E-02  -9.064201E-01   3.145599E-01  -1.165649E-01                  
            12      G     -4.411234E-01   8.489342E-01  -1.060966E-01   0.0            0.0           -2.961657E-01                  
           101      G     -4.305560E-05  -2.700192E-04  -6.777669E-05   0.0            0.0            0.0                           
           103      G     -2.077179E-05  -2.560475E-04  -6.414152E-05   0.0            0.0            0.0                           
           104      G     -2.105037E-05  -2.559256E-04  -6.405383E-05   0.0            0.0            0.0                           
           105      G     -2.077179E-05  -2.560475E-04  -6.414152E-05   0.0            0.0            0.0                           
           107      G     -4.305560E-05  -2.700192E-04  -6.777669E-05   0.0            0.0            0.0                           
           108      G     -4.351721E-05  -2.697697E-04  -6.761796E-05   0.0            0.0            0.0                           
           113      G     -4.434361E-05  -3.951196E-04  -9.555039E-05   0.0            0.0            0.0                           
           115      G     -3.904878E-05  -4.065024E-04  -1.043494E-04   0.0            0.0            0.0                           
           116      G     -1.008953E-04   4.014370E-04  -4.120846E-05   0.0            0.0            0.0                           
           117      G     -3.904878E-05  -4.065024E-04  -1.043494E-04   0.0            0.0            0.0                           
           119      G     -4.434361E-05  -3.951196E-04  -9.555039E-05   0.0            0.0            0.0                           
           120      G     -1.008953E-04   4.014370E-04  -4.120846E-05   0.0            0.0            0.0                           
           121      G     -2.604651E-05   0.0            0.0            0.0            0.0            0.0                           
           123      G     -2.502947E-05   0.0            0.0            0.0            0.0            0.0                           
           124      G     -2.499399E-05   0.0            0.0            0.0            0.0            0.0                           
           125      G     -2.502947E-05   0.0            0.0            0.0            0.0            0.0                           
           127      G     -2.604651E-05   0.0            0.0            0.0            0.0            0.0                           
           128      G     -2.599116E-05   0.0            0.0            0.0            0.0            0.0                           
1     MODAL FLUTTER ANALYSIS OF A ROTOR BLADE                               /    95 SUN SOLARIS NASTRAN    / MAY 18, 95 / PAGE    23
      NASTRAN TEST PROBLEM NO. T09-05-1A                                                                                            
0                                                                                                                                   
      EIGENVALUE =  0.100267E+08    (CYCLIC FREQUENCY =  5.039627E+02 HZ)

                                         R E A L   E I G E N V E C T O R   N O .          2
 
      POINT ID.   TYPE          T1             T2             T3             R1             R2             R3
             1      G      2.623800E-05   6.724903E-04  -6.236534E-05  -4.357360E-02   3.644540E-03   7.381956E-03                  
             2      G      2.623800E-05   6.724903E-04  -6.236534E-05  -4.357360E-02   3.644540E-03   7.381956E-03                  
             3      G      2.623800E-05   6.724903E-04  -6.236534E-05  -4.357360E-02   3.644540E-03   7.381956E-03                  
             4      G     -6.729877E-02   1.368285E-01   2.219187E-02   1.807743E-02  -2.662928E-01  -1.240145E-01                  
             5      G     -2.308343E-02   7.064103E-02   4.369340E-04  -5.151695E-02  -6.339529E-02  -1.056618E-01                  
             6      G     -3.868906E-03  -2.967898E-03   1.693245E-03   1.702788E-02  -9.005885E-02  -7.761332E-02                  
             7      G     -1.990092E-01   3.629403E-01   5.868076E-02   0.0            0.0           -1.402750E-01                  
             8      G     -1.028556E-01   2.848747E-01   7.043975E-04  -2.908390E-01   2.398205E-01  -1.413445E-01                  
             9      G     -2.034148E-02   1.876866E-01  -3.868258E-02  -1.703575E-01   3.431847E-02  -2.046720E-01                  
            10      G      3.565546E-01   3.402882E-02  -3.010962E-02   0.0            0.0           -2.968800E-02                  
            11      G      4.507257E-01  -1.211050E-02  -4.691050E-03   1.000000E+00  -3.356183E-01   5.615604E-02                  
            12      G      3.028876E-01   6.974810E-02  -6.602697E-03   0.0            0.0            1.339207E-01                  
           101      G     -6.514444E-05  -4.453160E-04   1.804431E-05   0.0            0.0            0.0                           
           103      G     -5.018626E-05  -4.202039E-04   1.864642E-05   0.0            0.0            0.0                           
           104      G     -5.061218E-05  -4.201020E-04   1.870412E-05   0.0            0.0            0.0                           
           105      G     -5.018626E-05  -4.202039E-04   1.864642E-05   0.0            0.0            0.0                           
           107      G     -6.514444E-05  -4.453160E-04   1.804431E-05   0.0            0.0            0.0                           
           108      G     -6.587892E-05  -4.450590E-04   1.815476E-05   0.0            0.0            0.0                           
           113      G     -6.207683E-05  -6.620400E-04   2.973177E-05   0.0            0.0            0.0                           
           115      G     -6.412280E-05  -6.809111E-04   2.255208E-05   0.0            0.0            0.0                           
           116      G      2.623800E-05   6.724903E-04  -6.236534E-05   0.0            0.0            0.0                           
           117      G     -6.412280E-05  -6.809111E-04   2.255208E-05   0.0            0.0            0.0                           
           119      G     -6.207683E-05  -6.620400E-04   2.973177E-05   0.0            0.0            0.0                           
           120      G      2.623800E-05   6.724903E-04  -6.236534E-05   0.0            0.0            0.0                           
           121      G     -3.586352E-05   0.0            0.0            0.0            0.0            0.0                           
           123      G     -5.830711E-05   0.0            0.0            0.0            0.0            0.0                           
           124      G     -5.824635E-05   0.0            0.0            0.0            0.0            0.0                           
           125      G     -5.830711E-05   0.0            0.0            0.0            0.0            0.0                           
           127      G     -3.586352E-05   0.0            0.0            0.0            0.0            0.0                           
           128      G     -3.578415E-05   0.0            0.0            0.0            0.0            0.0                           
1     MODAL FLUTTER ANALYSIS OF A ROTOR BLADE                               /    95 SUN SOLARIS NASTRAN    / MAY 18, 95 / PAGE    24
      NASTRAN TEST PROBLEM NO. T09-05-1A                                                                                            
0                                                                                                                                   
      EIGENVALUE =  0.295398E+08    (CYCLIC FREQUENCY =  8.650157E+02 HZ)

                                         R E A L   E I G E N V E C T O R   N O .          3
 
      POINT ID.   TYPE          T1             T2             T3             R1             R2             R3
             1      G      2.917168E-05   6.087690E-05  -7.376582E-06   1.941467E-03   3.274512E-05  -3.001204E-04                  
             2      G      2.917168E-05   6.087690E-05  -7.376582E-06   1.941467E-03   3.274512E-05  -3.001204E-04                  
             3      G      2.917168E-05   6.087690E-05  -7.376582E-06   1.941467E-03   3.274512E-05  -3.001204E-04                  
             4      G      4.121222E-03  -6.630537E-03  -7.695593E-04  -2.223376E-02   5.217570E-02   1.079280E-02                  
             5      G      8.525265E-04  -1.616871E-03  -3.546287E-04  -1.763270E-03   6.539040E-03   5.956567E-03                  
             6      G      1.440334E-04   9.627732E-04   2.172956E-06  -1.354891E-03   4.916601E-03   3.014216E-03                  
             7      G      2.717084E-02  -1.981895E-02  -3.063918E-03   0.0            0.0            2.876871E-02                  
             8      G     -5.404507E-03   8.931376E-03  -1.073602E-03   6.773624E-02  -1.264858E-01   1.390513E-02                  
             9      G     -5.707735E-03   9.248644E-03  -1.372412E-03   6.485240E-04  -4.904847E-02   1.726538E-03                  
            10      G      3.234815E-01  -1.087765E-01  -3.461191E-02   0.0            0.0            4.175634E-01                  
            11      G     -6.394262E-02   6.111007E-02  -2.884397E-04   1.000000E+00  -6.634098E-01   1.209384E-01                  
            12      G     -4.940680E-02   5.249030E-02  -6.559387E-03   0.0            0.0            1.465381E-02                  
           101      G     -6.678972E-06  -3.868133E-05   1.990460E-05   0.0            0.0            0.0                           
           103      G     -8.360615E-06  -3.606938E-05   1.938770E-05   0.0            0.0            0.0                           
           104      G     -8.383087E-06  -3.607219E-05   1.938023E-05   0.0            0.0            0.0                           
           105      G     -8.360615E-06  -3.606938E-05   1.938770E-05   0.0            0.0            0.0                           
           107      G     -6.678972E-06  -3.868133E-05   1.990460E-05   0.0            0.0            0.0                           
           108      G     -6.722671E-06  -3.868625E-05   1.989114E-05   0.0            0.0            0.0                           
           113      G     -6.451223E-06  -6.003368E-05   2.865229E-05   0.0            0.0            0.0                           
           115      G     -8.139615E-06  -6.156005E-05   2.920572E-05   0.0            0.0            0.0                           
           116      G      2.917168E-05   6.087690E-05  -7.376582E-06   0.0            0.0            0.0                           
           117      G     -8.139615E-06  -6.156005E-05   2.920572E-05   0.0            0.0            0.0                           
           119      G     -6.451223E-06  -6.003368E-05   2.865229E-05   0.0            0.0            0.0                           
           120      G      2.917168E-05   6.087690E-05  -7.376582E-06   0.0            0.0            0.0                           
           121      G     -3.566089E-06   0.0            0.0            0.0            0.0            0.0                           
           123      G     -8.827892E-06   0.0            0.0            0.0            0.0            0.0                           
           124      G     -8.823911E-06   0.0            0.0            0.0            0.0            0.0                           
           125      G     -8.827892E-06   0.0            0.0            0.0            0.0            0.0                           
           127      G     -3.566089E-06   0.0            0.0            0.0            0.0            0.0                           
           128      G     -3.562640E-06   0.0            0.0            0.0            0.0            0.0                           
1     MODAL FLUTTER ANALYSIS OF A ROTOR BLADE                               /    95 SUN SOLARIS NASTRAN    / MAY 18, 95 / PAGE    25
      NASTRAN TEST PROBLEM NO. T09-05-1A                                                                                            
0                                                                                                                                   
      EIGENVALUE =  0.115264E+09    (CYCLIC FREQUENCY =  1.708707E+03 HZ)

                                         R E A L   E I G E N V E C T O R   N O .          4
 
      POINT ID.   TYPE          T1             T2             T3             R1             R2             R3
             1      G      1.372115E-03   4.225346E-03  -3.540588E-04  -1.210787E-01   4.016348E-02  -2.865965E-03                  
             2      G      1.372115E-03   4.225346E-03  -3.540588E-04  -1.210787E-01   4.016348E-02  -2.865965E-03                  
             3      G      1.372115E-03   4.225346E-03  -3.540588E-04  -1.210787E-01   4.016348E-02  -2.865965E-03                  
             4      G     -6.134187E-02   1.815669E-01   3.200866E-02  -6.857625E-01   1.000000E+00   2.505394E-02                  
             5      G     -2.685541E-02   1.308355E-01   4.663749E-04  -1.501114E-02  -1.441683E-01  -1.625627E-01                  
             6      G      1.467198E-03   2.519370E-02  -7.949186E-03   1.904494E-02  -2.379264E-01  -1.467509E-01                  
             7      G      3.050741E-01  -1.160235E-01  -2.468242E-02   0.0            0.0            4.540608E-01                  
             8      G      1.102734E-01   5.467810E-02   2.441748E-03   3.617477E-01  -3.439184E-01   2.477111E-01                  
             9      G      6.495907E-02   1.016008E-01  -2.344039E-02  -6.135144E-02   2.022892E-01   1.377008E-01                  
            10      G     -1.775014E-02   9.526247E-02   2.998948E-02   0.0            0.0           -1.459866E-01                  
            11      G     -6.159945E-02   1.185418E-01   4.812315E-03   2.610450E-01  -3.816165E-01  -3.972743E-01                  
            12      G      3.680703E-01  -1.210238E-01   1.044218E-02   0.0            0.0           -6.076558E-01                  
           101      G     -3.705513E-04  -2.769858E-03   9.347938E-04   0.0            0.0            0.0                           
           103      G     -4.108360E-04  -2.602971E-03   9.057014E-04   0.0            0.0            0.0                           
           104      G     -4.132360E-04  -2.603004E-03   9.055564E-04   0.0            0.0            0.0                           
           105      G     -4.108360E-04  -2.602971E-03   9.057014E-04   0.0            0.0            0.0                           
           107      G     -3.705513E-04  -2.769858E-03   9.347938E-04   0.0            0.0            0.0                           
           108      G     -3.747979E-04  -2.769322E-03   9.345764E-04   0.0            0.0            0.0                           
           113      G     -3.175862E-04  -4.161974E-03   1.360910E-03   0.0            0.0            0.0                           
           115      G     -3.981999E-04  -4.277540E-03   1.362637E-03   0.0            0.0            0.0                           
           116      G      1.372115E-03   4.225346E-03  -3.540588E-04   0.0            0.0            0.0                           
           117      G     -3.981999E-04  -4.277540E-03   1.362637E-03   0.0            0.0            0.0                           
           119      G     -3.175862E-04  -4.161974E-03   1.360910E-03   0.0            0.0            0.0                           
           120      G      1.372115E-03   4.225346E-03  -3.540588E-04   0.0            0.0            0.0                           
           121      G     -1.805352E-04   0.0            0.0            0.0            0.0            0.0                           
           123      G     -4.685532E-04   0.0            0.0            0.0            0.0            0.0                           
           124      G     -4.681698E-04   0.0            0.0            0.0            0.0            0.0                           
           125      G     -4.685532E-04   0.0            0.0            0.0            0.0            0.0                           
           127      G     -1.805352E-04   0.0            0.0            0.0            0.0            0.0                           
           128      G     -1.801319E-04   0.0            0.0            0.0            0.0            0.0                           
1     MODAL FLUTTER ANALYSIS OF A ROTOR BLADE                               /    95 SUN SOLARIS NASTRAN    / MAY 18, 95 / PAGE    26
      NASTRAN TEST PROBLEM NO. T09-05-1A                                                                                            
0                                                                                                                                   
      EIGENVALUE =  0.170312E+09    (CYCLIC FREQUENCY =  2.077028E+03 HZ)

                                         R E A L   E I G E N V E C T O R   N O .          5
 
      POINT ID.   TYPE          T1             T2             T3             R1             R2             R3
             1      G     -7.400515E-04  -2.030058E-03   1.599471E-04   5.607332E-02  -1.318492E-02   2.599784E-03                  
             2      G     -7.400515E-04  -2.030058E-03   1.599471E-04   5.607332E-02  -1.318492E-02   2.599784E-03                  
             3      G     -7.400515E-04  -2.030058E-03   1.599471E-04   5.607332E-02  -1.318492E-02   2.599784E-03                  
             4      G      4.300073E-02  -1.021012E-01  -1.758903E-02   6.415791E-02  -4.384133E-03   6.618038E-02                  
             5      G      8.648653E-03  -5.194636E-02  -3.779225E-04   2.069411E-02  -2.916991E-02   7.492998E-02                  
             6      G     -1.736292E-03  -1.331633E-02   4.585541E-03  -2.839718E-03   1.214583E-01   5.332982E-02                  
             7      G      4.191520E-03  -2.826474E-02  -9.615923E-03   0.0            0.0            2.845801E-01                  
             8      G     -1.178141E-01   8.052564E-02   1.775069E-03  -1.248945E-01   6.561895E-02   3.088376E-02                  
             9      G     -4.715649E-02   2.296891E-03  -2.398581E-03  -1.095117E-01   2.125489E-01  -1.940006E-01                  
            10      G     -3.047589E-02  -2.339875E-02  -1.034927E-02   0.0            0.0           -2.009949E-02                  
            11      G     -1.109626E-01   1.128882E-02   2.823422E-03   1.000000E+00  -5.749487E-01  -2.224884E-01                  
            12      G      1.872118E-01  -1.544383E-01   2.029725E-02   0.0            0.0           -6.028445E-01                  
           101      G      1.708101E-04   1.334110E-03  -5.056031E-04   0.0            0.0            0.0                           
           103      G      1.984280E-04   1.253951E-03  -4.891119E-04   0.0            0.0            0.0                           
           104      G      1.995905E-04   1.254026E-03  -4.890217E-04   0.0            0.0            0.0                           
           105      G      1.984280E-04   1.253951E-03  -4.891119E-04   0.0            0.0            0.0                           
           107      G      1.708101E-04   1.334110E-03  -5.056031E-04   0.0            0.0            0.0                           
           108      G      1.728547E-04   1.333922E-03  -5.054593E-04   0.0            0.0            0.0                           
           113      G      1.404651E-04   1.999791E-03  -7.329283E-04   0.0            0.0            0.0                           
           115      G      1.837521E-04   2.055251E-03  -7.363191E-04   0.0            0.0            0.0                           
           116      G     -7.400515E-04  -2.030058E-03   1.599471E-04   0.0            0.0            0.0                           
           117      G      1.837521E-04   2.055251E-03  -7.363191E-04   0.0            0.0            0.0                           
[...]
0          127      G     -3.371288E-05   0.0            0.0            0.0            0.0            0.0                           
                           1.584622E-07   0.0            0.0            0.0            0.0            0.0                           
0          128      G     -3.363816E-05   0.0            0.0            0.0            0.0            0.0                           
                           1.580653E-07   0.0            0.0            0.0            0.0            0.0                           
1     MODAL FLUTTER ANALYSIS OF A ROTOR BLADE                               /    95 SUN SOLARIS NASTRAN    / MAY 18, 95 / PAGE   108
      NASTRAN TEST PROBLEM NO. T09-05-1A                                                                                            
0     POINT =9        MACH = 180.     KFREQ= 1.       RHO =  .1774919                                                               
      COMPLEX EIGENVALUE =  1.975942E+01,  4.963121E+03    (CYCLIC FREQUENCY =  7.899052E+02HZ)
                                       C O M P L E X   E I G E N V E C T O R   NO.          3
                                                          (REAL/IMAGINARY)
 
      POINT ID.   TYPE          T1             T2             T3             R1             R2             R3
0            1      G      5.352428E-05   1.702964E-04  -1.689884E-05  -2.504271E-03   9.303995E-04   5.984782E-05                  
                           1.972594E-05   1.029080E-04  -9.055317E-06  -4.575674E-03   8.000415E-04   4.666054E-04                  
0            2      G      5.352428E-05   1.702964E-04  -1.689884E-05  -2.504271E-03   9.303995E-04   5.984782E-05                  
                           1.972594E-05   1.029080E-04  -9.055317E-06  -4.575674E-03   8.000415E-04   4.666054E-04                  
0            3      G      5.352428E-05   1.702964E-04  -1.689884E-05  -2.504271E-03   9.303995E-04   5.984782E-05                  
                           1.972594E-05   1.029080E-04  -9.055317E-06  -4.575674E-03   8.000415E-04   4.666054E-04                  
0            4      G     -6.479776E-04   4.011979E-03   9.980088E-04  -3.251060E-02   5.369742E-02   4.241426E-03                  
                          -5.424946E-03   1.176984E-02   1.941119E-03  -7.555760E-03  -5.577368E-03  -8.260620E-03                  
0            5      G     -8.762070E-04   4.491004E-03  -3.228379E-04  -4.813417E-03   4.628228E-04  -2.623706E-03                  
                          -1.932547E-03   6.555478E-03   3.579780E-05  -3.667007E-03  -6.382784E-03  -9.369742E-03                  
0            6      G     -4.645903E-05   1.225333E-03  -3.767640E-05  -1.043009E-04  -4.106200E-03  -3.765672E-03                  
                          -2.462698E-04   1.326968E-04   1.100797E-05   1.403568E-03  -9.336448E-03  -7.261024E-03                  
0            7      G      2.119472E-02  -1.500544E-03  -2.017863E-04   0.0            0.0            2.855095E-02                  
                          -9.676791E-03   2.347363E-02   3.717078E-03   0.0            0.0           -3.691749E-03                  
0            8      G     -9.418219E-03   2.587795E-02  -9.992456E-04   5.798145E-02  -1.199826E-01   1.016596E-02                  
                          -5.756288E-03   2.046677E-02   7.463650E-05  -1.485400E-02   1.086388E-02  -6.480071E-03                  
0            9      G     -5.764638E-03   2.143343E-02  -3.920794E-03  -1.022933E-02  -4.299667E-02  -7.125692E-03                  
                          -5.575909E-04   1.426567E-02  -2.968146E-03  -1.288233E-02   5.775975E-03  -1.201791E-02                  
0           10      G      3.314095E-01  -9.479216E-02  -3.329609E-02   0.0            0.0            4.128002E-01                  
                           1.250599E-02   1.420741E-02   8.438986E-04   0.0            0.0           -4.629829E-03                  
0           11      G     -5.212747E-02   7.351504E-02  -2.120813E-04   1.039896E+00  -6.818864E-01   1.151815E-01                  
                           1.777303E-02   1.194893E-02   7.783237E-07   5.175777E-02  -2.139505E-02  -3.612297E-03                  
0           12      G     -3.402032E-02   6.271244E-02  -7.824332E-03   0.0            0.0            6.735746E-03                  
                           1.791462E-02   1.166907E-02  -1.401560E-03   0.0            0.0           -4.032446E-03                  
0          101      G     -1.663832E-05  -1.106860E-04   3.651358E-05   0.0            0.0            0.0                           
                          -9.469019E-06  -6.779487E-05   1.345923E-05   0.0            0.0            0.0                           
0          103      G     -1.811554E-05  -1.038382E-04   3.554886E-05   0.0            0.0            0.0                           
                          -8.923073E-06  -6.383513E-05   1.312466E-05   0.0            0.0            0.0                           
0          104      G     -1.820270E-05  -1.038356E-04   3.554237E-05   0.0            0.0            0.0                           
                          -8.984629E-06  -6.382834E-05   1.312693E-05   0.0            0.0            0.0                           
1     MODAL FLUTTER ANALYSIS OF A ROTOR BLADE                               /    95 SUN SOLARIS NASTRAN    / MAY 18, 95 / PAGE   109
      NASTRAN TEST PROBLEM NO. T09-05-1A                                                                                            
0     POINT =9        MACH = 180.     KFREQ= 1.       RHO =  .1774919                                                               
      COMPLEX EIGENVALUE =  1.975942E+01,  4.963121E+03    (CYCLIC FREQUENCY =  7.899052E+02HZ)
                                       C O M P L E X   E I G E N V E C T O R   NO.          3
                                                          (REAL/IMAGINARY)
 
      POINT ID.   TYPE          T1             T2             T3             R1             R2             R3
0          105      G     -1.811554E-05  -1.038382E-04   3.554886E-05   0.0            0.0            0.0                           
                          -8.923073E-06  -6.383513E-05   1.312466E-05   0.0            0.0            0.0                           
0          107      G     -1.663832E-05  -1.106860E-04   3.651358E-05   0.0            0.0            0.0                           
                          -9.469019E-06  -6.779487E-05   1.345923E-05   0.0            0.0            0.0                           
0          108      G     -1.679526E-05  -1.106671E-04   3.650299E-05   0.0            0.0            0.0                           
                          -9.576484E-06  -6.776967E-05   1.346433E-05   0.0            0.0            0.0                           
0          113      G     -1.534953E-05  -1.677925E-04   5.302241E-05   0.0            0.0            0.0                           
                          -8.559688E-06  -1.013402E-04   1.982972E-05   0.0            0.0            0.0                           
0          115      G     -1.849830E-05  -1.723375E-04   5.318692E-05   0.0            0.0            0.0                           
                          -9.754844E-06  -1.041870E-04   1.934068E-05   0.0            0.0            0.0                           
0          116      G      5.352428E-05   1.702964E-04  -1.689884E-05   0.0            0.0            0.0                           
                           1.972594E-05   1.029080E-04  -9.055317E-06   0.0            0.0            0.0                           
0          117      G     -1.849830E-05  -1.723375E-04   5.318692E-05   0.0            0.0            0.0                           
                          -9.754844E-06  -1.041870E-04   1.934068E-05   0.0            0.0            0.0                           
0          119      G     -1.534953E-05  -1.677925E-04   5.302241E-05   0.0            0.0            0.0                           
                          -8.559688E-06  -1.013402E-04   1.982972E-05   0.0            0.0            0.0                           
0          120      G      5.352428E-05   1.702964E-04  -1.689884E-05   0.0            0.0            0.0                           
                           1.972594E-05   1.029080E-04  -9.055317E-06   0.0            0.0            0.0                           
0          121      G     -8.659486E-06   0.0            0.0            0.0            0.0            0.0                           
                          -4.908447E-06   0.0            0.0            0.0            0.0            0.0                           
0          123      G     -2.001610E-05   0.0            0.0            0.0            0.0            0.0                           
                          -1.025348E-05   0.0            0.0            0.0            0.0            0.0                           
0          124      G     -2.000221E-05   0.0            0.0            0.0            0.0            0.0                           
                          -1.024417E-05   0.0            0.0            0.0            0.0            0.0                           
0          125      G     -2.001610E-05   0.0            0.0            0.0            0.0            0.0                           
                          -1.025348E-05   0.0            0.0            0.0            0.0            0.0                           
0          127      G     -8.659486E-06   0.0            0.0            0.0            0.0            0.0                           
                          -4.908447E-06   0.0            0.0            0.0            0.0            0.0                           
0          128      G     -8.644724E-06   0.0            0.0            0.0            0.0            0.0                           
                          -4.897558E-06   0.0            0.0            0.0            0.0            0.0                           
1     MODAL FLUTTER ANALYSIS OF A ROTOR BLADE                               /    95 SUN SOLARIS NASTRAN    / MAY 18, 95 / PAGE   110
      NASTRAN TEST PROBLEM NO. T09-05-1A                                                                                            
0     POINT =9        MACH = 180.     KFREQ= 1.       RHO =  .1774919                                                               
      COMPLEX EIGENVALUE =  3.998241E+02,  8.932469E+03    (CYCLIC FREQUENCY =  1.421646E+03HZ)
                                       C O M P L E X   E I G E N V E C T O R   NO.          4
                                                          (REAL/IMAGINARY)
 
      POINT ID.   TYPE          T1             T2             T3             R1             R2             R3
0            1      G      1.365111E-03   4.358315E-03  -3.661165E-04  -1.314605E-01   4.095897E-02  -1.031485E-03                  
                          -1.649977E-06   1.281838E-04  -1.193204E-05  -8.925247E-03   7.127714E-04   1.586795E-03                  
0            2      G      1.365111E-03   4.358315E-03  -3.661165E-04  -1.314605E-01   4.095897E-02  -1.031485E-03                  
                          -1.649977E-06   1.281838E-04  -1.193204E-05  -8.925247E-03   7.127714E-04   1.586795E-03                  
0            3      G      1.365111E-03   4.358315E-03  -3.661165E-04  -1.314605E-01   4.095897E-02  -1.031485E-03                  
                          -1.649977E-06   1.281838E-04  -1.193204E-05  -8.925247E-03   7.127714E-04   1.586795E-03                  
0            4      G     -7.818341E-02   2.151084E-01   3.735330E-02  -6.721908E-01   9.174950E-01  -7.657735E-03                  
                          -1.433678E-02   2.880315E-02   4.635990E-03   8.573849E-03  -6.521210E-02  -2.741749E-02                  
0            5      G     -3.244489E-02   1.475059E-01   6.596536E-04  -2.647390E-02  -1.609563E-01  -1.885449E-01                  
                          -4.841098E-03   1.458402E-02   1.142702E-04  -1.049977E-02  -1.390128E-02  -2.217340E-02                  
0            6      G      5.041984E-04   2.416312E-02  -7.520058E-03   2.331174E-02  -2.598340E-01  -1.654555E-01                  
                          -8.353427E-04  -7.638448E-04   3.838510E-04   3.579066E-03  -1.870719E-02  -1.616990E-02                  
0            7      G      2.494082E-01  -2.376805E-02  -9.781921E-03   0.0            0.0            4.113609E-01                  
                          -4.523455E-02   7.904954E-02   1.279065E-02   0.0            0.0           -3.342922E-02                  
0            8      G      8.621669E-02   1.206682E-01   2.856317E-03   2.750051E-01  -2.569937E-01   2.094020E-01                  
                          -2.236659E-02   6.032285E-02   1.931226E-04  -6.627210E-02   5.673576E-02  -3.192042E-02                  
0            9      G      6.130328E-02   1.436248E-01  -3.221141E-02  -1.033507E-01   2.255693E-01   8.896225E-02                  
                          -4.202678E-03   3.897984E-02  -8.043548E-03  -3.738622E-02   1.281131E-02  -4.316710E-02                  
0           10      G     -6.496233E-02   1.745358E-01   4.197358E-02   0.0            0.0           -2.641065E-01                  
                           9.322641E-03   5.422406E-02   5.339148E-03   0.0            0.0           -3.712163E-02                  
0           11      G      1.223965E-02   1.449100E-01   4.809142E-03   1.544950E-01  -2.599258E-01  -4.230817E-01                  
                           5.384625E-02   3.489849E-02  -1.800907E-05   6.591845E-02   9.198822E-04  -3.473559E-03                  
0           12      G      4.202156E-01  -8.321908E-02   6.128881E-03   0.0            0.0           -5.986328E-01                  
                           3.741018E-02   4.337028E-02  -5.056111E-03   0.0            0.0            9.855993E-03                  
0          101      G     -3.834144E-04  -2.858521E-03   9.300897E-04   0.0            0.0            0.0                           
                          -1.253501E-05  -8.516716E-05  -1.057505E-06   0.0            0.0            0.0                           
0          103      G     -4.193535E-04  -2.686803E-03   9.014116E-04   0.0            0.0            0.0                           
                          -8.924139E-06  -8.044588E-05  -7.683462E-07   0.0            0.0            0.0                           
0          104      G     -4.218430E-04  -2.686810E-03   9.012837E-04   0.0            0.0            0.0                           
                          -9.007436E-06  -8.042310E-05  -7.542792E-07   0.0            0.0            0.0                           
1     MODAL FLUTTER ANALYSIS OF A ROTOR BLADE                               /    95 SUN SOLARIS NASTRAN    / MAY 18, 95 / PAGE   111
      NASTRAN TEST PROBLEM NO. T09-05-1A                                                                                            
0     POINT =9        MACH = 180.     KFREQ= 1.       RHO =  .1774919                                                               
      COMPLEX EIGENVALUE =  3.998241E+02,  8.932469E+03    (CYCLIC FREQUENCY =  1.421646E+03HZ)
                                       C O M P L E X   E I G E N V E C T O R   NO.          4
                                                          (REAL/IMAGINARY)
 
      POINT ID.   TYPE          T1             T2             T3             R1             R2             R3
0          105      G     -4.193535E-04  -2.686803E-03   9.014116E-04   0.0            0.0            0.0                           
                          -8.924139E-06  -8.044588E-05  -7.683462E-07   0.0            0.0            0.0                           
0          107      G     -3.834144E-04  -2.858521E-03   9.300897E-04   0.0            0.0            0.0                           
                          -1.253501E-05  -8.516716E-05  -1.057505E-06   0.0            0.0            0.0                           
0          108      G     -3.878132E-04  -2.857923E-03   9.299043E-04   0.0            0.0            0.0                           
                          -1.267754E-05  -8.511228E-05  -1.031011E-06   0.0            0.0            0.0                           
0          113      G     -3.299690E-04  -4.292847E-03   1.354960E-03   0.0            0.0            0.0                           
                          -1.207536E-05  -1.261815E-04  -7.920821E-07   0.0            0.0            0.0                           
0          115      G     -4.103043E-04  -4.412197E-03   1.354752E-03   0.0            0.0            0.0                           
                          -1.209316E-05  -1.297959E-04  -2.429583E-06   0.0            0.0            0.0                           
0          116      G      1.365111E-03   4.358315E-03  -3.661165E-04   0.0            0.0            0.0                           
                          -1.649977E-06   1.281838E-04  -1.193204E-05   0.0            0.0            0.0                           
0          117      G     -4.103043E-04  -4.412197E-03   1.354752E-03   0.0            0.0            0.0                           
                          -1.209316E-05  -1.297959E-04  -2.429583E-06   0.0            0.0            0.0                           
0          119      G     -3.299690E-04  -4.292847E-03   1.354960E-03   0.0            0.0            0.0                           
                          -1.207536E-05  -1.261815E-04  -7.920821E-07   0.0            0.0            0.0                           
0          120      G      1.365111E-03   4.358315E-03  -3.661165E-04   0.0            0.0            0.0                           
                          -1.649977E-06   1.281838E-04  -1.193204E-05   0.0            0.0            0.0                           
0          121      G     -1.877502E-04   0.0            0.0            0.0            0.0            0.0                           
                          -7.005012E-06   0.0            0.0            0.0            0.0            0.0                           
0          123      G     -4.787199E-04   0.0            0.0            0.0            0.0            0.0                           
                          -1.046623E-05   0.0            0.0            0.0            0.0            0.0                           
0          124      G     -4.783241E-04   0.0            0.0            0.0            0.0            0.0                           
                          -1.045458E-05   0.0            0.0            0.0            0.0            0.0                           
0          125      G     -4.787199E-04   0.0            0.0            0.0            0.0            0.0                           
                          -1.046623E-05   0.0            0.0            0.0            0.0            0.0                           
0          127      G     -1.877502E-04   0.0            0.0            0.0            0.0            0.0                           
                          -7.005012E-06   0.0            0.0            0.0            0.0            0.0                           
0          128      G     -1.873299E-04   0.0            0.0            0.0            0.0            0.0                           
                          -6.989298E-06   0.0            0.0            0.0            0.0            0.0                           




                                        * * * END OF JOB * * *
1
 JOB TITLE =  MODAL FLUTTER ANALYSIS OF A ROTOR BLADE                            
 DATE:  5/18/95
 END TIME: 10:39:32
 TOTAL WALL CLOCK TIME      3 SEC.
 
