ID    D01081A,NASTRAN                                                           
APP   DISPLACEMENT                                                              
SOL   1,3                                                                       
TIME  15                                                                        
CEND                                                                            
TITLE    = 1 X 4 X 10  CANTILEVER BEAM USING CUBIC CHEXA1 ELEMENTS.             
SUBTITLE = NASTRAN DEMONSTRATION PROBLEM NO. D01-08-1A                          
LABEL    = TWO PLANES OF SYMMETRY, PURE BENDING MOMENT                          
     SPC = 10                                                                   
    LOAD = 10                                                                   
OUTPUT                                                                          
      DISPLACEMENT = ALL                                                        
      SPCFORCE = ALL                                                            
      OLOAD  = ALL                                                              
      STRESS = ALL                                                              
BEGIN BULK                                                                      
CHEXA1  1       1       2       1       3       4       12      11      +HEX   1
+HEX   113      14                                                              
CHEXA1  2       1       4       3       5       6       14      13      +HEX   2
+HEX   215      16                                                              
CHEXA1  3       1       6       5       7       8       16      15      +HEX   3
+HEX   317      18                                                              
CHEXA1  4       1       8       7       9       10      18      17      +HEX   4
+HEX   419      20                                                              
CHEXA1  5       1       12      11      13      14      22      21      +HEX   5
+HEX   523      24                                                              
CHEXA1  6       1       14      13      15      16      24      23      +HEX   6
+HEX   625      26                                                              
CHEXA1  7       1       16      15      17      18      26      25      +HEX   7
+HEX   727      28                                                              
CHEXA1  8       1       18      17      19      20      28      27      +HEX   8
+HEX   829      30                                                              
CHEXA1  9       1       22      21      23      24      32      31      +HEX   9
+HEX   933      34                                                              
CHEXA1  10      1       24      23      25      26      34      33      +HEX  10
+HEX  1035      36                                                              
CHEXA1  11      1       26      25      27      28      36      35      +HEX  11
+HEX  1137      38                                                              
CHEXA1  12      1       28      27      29      30      38      37      +HEX  12
+HEX  1239      40                                                              
CHEXA1  13      1       32      31      33      34      42      41      +HEX  13
+HEX  1343      44                                                              
CHEXA1  14      1       34      33      35      36      44      43      +HEX  14
+HEX  1445      46                                                              
CHEXA1  15      1       36      35      37      38      46      45      +HEX  15
+HEX  1547      48                                                              
CHEXA1  16      1       38      37      39      40      48      47      +HEX  16
+HEX  1649      50                                                              
CHEXA1  17      1       42      41      43      44      52      51      +HEX  17
+HEX  1753      54                                                              
CHEXA1  18      1       44      43      45      46      54      53      +HEX  18
+HEX  1855      56                                                              
CHEXA1  19      1       46      45      47      48      56      55      +HEX  19
+HEX  1957      58                                                              
CHEXA1  20      1       48      47      49      50      58      57      +HEX  20
+HEX  2059      60                                                              
$ ... 40 like lines cut
CNGRNT  1       2       THRU    40                                              
FORCE   10      103             5.818182-1.0    .0      .0                      
FORCE   10      104             5.818182-1.0    .0      .0                      
FORCE   10      105             5.818182-2.0    .0      .0                      
FORCE   10      106             5.818182-2.0    .0      .0                      
FORCE   10      107             5.818182-3.0    .0      .0                      
FORCE   10      108             5.818182-3.0    .0      .0                      
FORCE   10      109             5.818182-2.0    .0      .0                      
FORCE   10      110             5.818182-2.0    .0      .0                      
GRID    1               .00     .00     .00             456                     
GRID    2               .00     .00     2.00000         456                     
GRID    3               .00     2.00000 .00             456                     
GRID    4               .00     2.00000 2.00000         456                     
GRID    5               .00     4.00000 .00             456                     
GRID    6               .00     4.00000 2.00000         456                     
GRID    7               .00     6.00000 .00             456                     
GRID    8               .00     6.00000 2.00000         456                     
GRID    9               .00     8.00000 .00             456                     
GRID    10              .00     8.00000 2.00000         456                     
GRID    11              2.00000 .00     .00             456                     
GRID    12              2.00000 .00     2.00000         456                     
GRID    13              2.00000 2.00000 .00             456                     
GRID    14              2.00000 2.00000 2.00000         456                     
GRID    15              2.00000 4.00000 .00             456                     
GRID    16              2.00000 4.00000 2.00000         456                     
GRID    17              2.00000 6.00000 .00             456                     
GRID    18              2.00000 6.00000 2.00000         456                     
GRID    19              2.00000 8.00000 .00             456                     
GRID    20              2.00000 8.00000 2.00000         456                     
$ ... 90 like lines cut
MAT1    1       3.0+6           .2      1.0     .001    10.0            +MAT1   
SPC     10      1       123     .0      2       13      .0                      
SPC1    10      1       3       4       5       6       7       8       +3      
+3      9       10                                                              
SPC1    10      3       3       5       7       9                               
SPC1    10      3       11      13      15      17      19                      
SPC1    10      3       21      23      25      27      29                      
SPC1    10      3       31      33      35      37      39                      
SPC1    10      3       41      43      45      47      49                      
SPC1    10      3       51      53      55      57      59                      
SPC1    10      3       61      63      65      67      69                      
SPC1    10      3       71      73      75      77      79                      
SPC1    10      3       81      83      85      87      89                      
SPC1    10      3       91      93      95      97      99                      
SPC1    10      3       101     103     105     107     109                     
SPC1    10      13      11      12      21      22      31      32      +1      
+1      41      42      51      52      61      62      71      72      +2      
+2      81      82      91      92      101     102                             
ENDDATA                                                                         
