ID    D01041A,NASTRAN                                                           
APP   DISPLACEMENT                                                              
TIME  30                                                                        
SOL   1,1                                                                       
DIAG  14                                                                        
ALTER 1 $                                                                       
PARAM  //C,N,NOP/V,N,TRUE=-1 $                                                  
INPUT, GEOM1,,,,/G1,G2,,G4,/C,N,3/C,N,1  $                                      
EQUIV  G1,GEOM1/TRUE /G2,GEOM2/TRUE /G4,GEOM4/TRUE $                            
ENDALTER $                                                                      
CEND                                                                            
TITLE    = 5 X 100 LONG, NARROW, ORTHOTROPIC PLATE                              
SUBTITLE = NASTRAN DEMONSTRATION PROBLEM NO. D01-04-1A                          
LABEL    = SPILL CHECK                                                          
    SPC  = 5100                                                                 
    LOAD = 17                                                                   
OUTPUT                                                                          
   SET 1 = 1 THRU 5,7,13,19,25,31,37,43                                         
   DISP  = 1                                                                    
  STRESS = 1                                                                    
   OLOAD = ALL                                                                  
SPCFORCE = ALL                                                                  
BEGIN BULK                                                                      
FORCE   17      1               1.0                     .9958928                
FORCE   17      2               1.0                     1.894301                
FORCE   17      3               1.0                     1.610752                
FORCE   17      4               1.0                     1.170742                
FORCE   17      5               1.0-2                   61.54956                
FORCE   17      6               1.0-2                   7.837847                
MAT2    1234    4.0+6   2.0+6           6.0+6           3.0+6   1.0     +MATL   
+MATL   .5      1.0     .05     10.0    .004    1.+12   2.+12   3.+12           
PQUAD1  101                     1234    .0833333                        +PQD    
+PQD    .5      -.5                                                             
SEQGP   1       1       2       102     3       203     4       304             
SEQGP   5       405     6       506     7       2       8       103             
SEQGP   9       204     10      305     11      406     12      507             
SEQGP   13      3       14      104     15      205     16      306             
SEQGP   17      407     18      508     19      4       20      105             
SEQGP   21      206     22      307     23      408     24      509             
SEQGP   25      5       26      106     27      207     28      308             
SEQGP   29      409     30      510     31      6       32      107             
SEQGP   33      208     34      309     35      410     36      511             
SEQGP   37      7       38      108     39      209     40      310             
SEQGP   41      411     42      512     43      8       44      109             
SEQGP   45      210     46      311     47      412     48      513             
SEQGP   49      9       50      110     51      211     52      312             
SEQGP   53      413     54      514     55      10      56      111             
SEQGP   57      212     58      313     59      414     60      515             
SEQGP   61      11      62      112     63      213     64      314             
SEQGP   65      415     66      516     67      12      68      113             
SEQGP   69      214     70      315     71      416     72      517             
SEQGP   73      13      74      114     75      215     76      316             
SEQGP   77      417     78      518     79      14      80      115             
$ ... 132 like lines cut
ENDDATA                                                                         
       5     100 2.0E+00 2.0E+00     126 0.0     0.0                            
       4       5       0      34       0       0                                
