ID    D01071A,NASTRAN                                                           
APP   DISPLACEMENT                                                              
SOL   1,1                                                                       
TIME  5                                                                         
CEND                                                                            
TITLE    = SPHERICAL SHELL WITH TOROIDAL RING ELEMENT                           
SUBTITLE = NASTRAN DEMONSTRATION PROBLEM NO. D01-07-1A                          
LABEL    = EXTERNAL PRESSURE LOADING                                            
    SPC  = 1                                                                    
    LOAD = 1                                                                    
OUTPUT                                                                          
    DISP = ALL                                                                  
   OLOAD = ALL                                                                  
 ELFORCE = ALL                                                                  
STRESSES = ALL                                                                  
BEGIN BULK                                                                      
CTORDRG 1       1       1       2       .0      2.0                             
CTORDRG 2       1       2       3       2.0     4.0                             
CTORDRG 3       1       3       4       4.0     6.0                             
CTORDRG 4       1       4       5       6.0     8.0                             
CTORDRG 5       1       5       6       8.0     10.0                            
CTORDRG 6       1       6       7       10.0    15.0                            
CTORDRG 7       1       7       8       15.0    20.0                            
CTORDRG 8       1       8       9       20.0    25.0                            
CTORDRG 9       1       9       10      25.0    27.0                            
CTORDRG 10      1       10      11      27.0    29.0                            
CTORDRG 11      1       11      12      29.0    31.0                            
CTORDRG 12      1       12      13      31.0    33.0                            
CTORDRG 13      1       13      14      33.0    35.0                            
FORCE   1       1       0       1.0     .0      .0      -8.85885                
FORCE   1       2       0       1.0     -2.16381.0      -61.9635                
FORCE   1       3       0       1.0     -8.64421.0      -123.618                
FORCE   1       4       0       1.0     -19.4063.0      -184.639                
FORCE   1       5       0       1.0     -34.4036.0      -244.795                
FORCE   1       6       0       1.0     -101.669.0      -576.596                
FORCE   1       7       0       1.0     -297.393.0      -1109.89                
FORCE   1       8       0       1.0     -519.309.0      -1426.79                
FORCE   1       9       0       1.0     -537.246.0      -1153.13                
FORCE   1       10      0       1.0     -366.120.0      -718.555                
FORCE   1       11      0       1.0     -417.584.0      -753.352                
FORCE   1       12      0       1.0     -471.266.0      -784.318                
FORCE   1       13      0       1.0     -526.891.0      -811.340                
GRDSET                                                  2                       
GRID    1       0       .0      .0      90.00                                   
GRID    2       0       3.141   .0      89.9451                                 
GRID    3       0       6.2784  .0      89.7804                                 
GRID    4       0       9.4077  .0      89.5068                                 
GRID    5       0       12.5253 .0      89.1243                                 
GRID    6       0       15.6285 .0      88.6329                                 
GRID    7       0       23.2938 .0      86.9337                                 
GRID    8       0       30.7818 .0      84.5721                                 
GRID    9       0       38.0358 .0      81.5679                                 
GRID    10      0       40.8591 .0      80.1909                                 
GRID    11      0       43.6329 .0      78.7158                                 
GRID    12      0       46.3536 .0      77.1453                                 
GRID    13      0       49.0176 .0      75.4803                                 
GRID    14      0       51.6222 .0      73.7235                                 
MAT1    12      3.0E6           .1667           12.5 E-6.0              CMAT11  
MOMENT  1       2       0       1.0     14.83917.0      -10.1998                
MOMENT  1       3       0       1.0     14.79298.0      -20.3822                
MOMENT  1       4       0       1.0     14.73849.0      -30.5275                
MOMENT  1       5       0       1.0     14.73710.0      -40.6554                
MOMENT  1       6       0       1.0     629.9624.0      -503.492                
MOMENT  1       7       0       1.0     223.9160.0      -1180.98                
MOMENT  1       8       0       1.0     217.7740.0      -1560.45                
MOMENT  1       9       0       1.0     -1125.59.0      -950.370                
MOMENT  1       10      0       1.0     13.35776.0      -132.642                
MOMENT  1       11      0       1.0     13.01903.0      -141.715                
MOMENT  1       12      0       1.0     12.64240.0      -150.533                
MOMENT  1       13      0       1.0     12.29669.0      -159.092                
PTORDRG 1       12      3.0     3.0                                             
SPC     1       1       14      .0      14      134     .0                      
ENDDATA                                                                         
