ID    D01051A,NASTRAN                                                           
TIME  35                                                                        
APP   DISP                                                                      
SOL   1,1                                                                       
CEND                                                                            
$                                                                               
TITLE    = NONSYMMETRIC BENDING OF A CYLINDER OF REVOLUTION                     
SUBTITLE = NASTRAN DEMONSTRATION PROBLEM NO. D01-05-1A                          
    LOAD = 15                                                                   
  AXISYM = COSINE                                                               
OUTPUT                                                                          
     SET 1 = 5,10,15,20,25,30,35,40,45,50,100,200                               
     SET 2 = 1,6,11,16,21,26,31,36,41,46,50                                     
      DISP = 1                                                                  
   ELFORCE = 2                                                                  
 HARMONICS = ALL                                                                
BEGIN BULK                                                                      
AXIC    20                                                                      
CCONEAX 1       15      100     1                                               
CCONEAX 2       15      1       2                                               
CCONEAX 3       15      2       3                                               
CCONEAX 4       15      3       4                                               
CCONEAX 5       15      4       5                                               
CCONEAX 6       15      5       6                                               
CCONEAX 7       15      6       7                                               
CCONEAX 8       15      7       8                                               
CCONEAX 9       15      8       9                                               
CCONEAX 10      15      9       10                                              
CCONEAX 11      15      10      11                                              
CCONEAX 12      15      11      12                                              
CCONEAX 13      15      12      13                                              
CCONEAX 14      15      13      14                                              
CCONEAX 15      15      14      15                                              
CCONEAX 16      15      15      16                                              
CCONEAX 17      15      16      17                                              
CCONEAX 18      15      17      18                                              
CCONEAX 19      15      18      19                                              
CCONEAX 20      15      19      20                                              
$ ... 30 like lines cut
MAT1    15      91.0            .3      .5                                      
MOMAX   15      50      0       157.0796        2.0                             
MOMAX   15      50      1       157.0796        1.0                             
MOMAX   15      50      2       157.0796        1.0                             
MOMAX   15      50      3       157.0796        1.0                             
MOMAX   15      50      4       157.0796        1.0                             
MOMAX   15      50      5       157.0796        1.0                             
MOMAX   15      50      6       157.0796        1.0                             
MOMAX   15      50      7       157.0796        1.0                             
MOMAX   15      50      8       157.0796        1.0                             
MOMAX   15      50      9       157.0796        1.0                             
MOMAX   15      50      10      157.0796        1.0                             
MOMAX   15      50      11      157.0796        1.0                             
MOMAX   15      50      12      157.0796        1.0                             
MOMAX   15      50      13      157.0796        1.0                             
MOMAX   15      50      14      157.0796        1.0                             
MOMAX   15      50      15      157.0796        1.0                             
MOMAX   15      50      16      157.0796        1.0                             
MOMAX   15      50      17      157.0796        1.0                             
MOMAX   15      50      18      157.0796        1.0                             
MOMAX   15      50      19      157.0796        1.0                             
$ ... 22 like lines cut
PCONEAX 15      15      1.0     15      .083333315      1.0     .5      +PC     
+PC     .0      .5      .0      90.     180.                                    
POINTAX 200     100                                                             
RINGAX  1               50.0    1.0                     4                       
RINGAX  2               50.0    2.0                     4                       
RINGAX  3               50.0    3.                      4                       
RINGAX  4               50.0    4.                      4                       
RINGAX  5               50.0    5.                      4                       
RINGAX  6               50.0    6.                      4                       
RINGAX  7               50.0    7.                      4                       
RINGAX  8               50.0    8.                      4                       
RINGAX  9               50.0    9.                      4                       
RINGAX  10              50.0    10.                     4                       
RINGAX  11              50.0    11.                     4                       
RINGAX  12              50.0    12.                     4                       
RINGAX  13              50.0    13.                     4                       
RINGAX  14              50.0    14.                     4                       
RINGAX  15              50.0    15.                     4                       
RINGAX  16              50.0    16.                     4                       
RINGAX  17              50.0    17.                     4                       
RINGAX  18              50.0    18.                     4                       
RINGAX  19              50.0    19.                     4                       
RINGAX  20              50.0    20.                     4                       
$ ... 31 like lines cut
ENDDATA                                                                         
