ID    D01033A,NASTRAN                                                           
APP   DISPLACEMENT                                                              
SOL   1,1                                                                       
TIME  20                                                                        
CEND                                                                            
TITLE    = FREE RECTANGULAR PLATE WITH THERMAL LOADING (QDMEM2 ELEMENTS)        
SUBTITLE = NASTRAN DEMONSTRATION PROBLEM NO. D01-03-3A                          
LABEL = LINEARLY VARYING THERMAL LOAD - TEMPERATURE DEPENDENT MATERIAL          
SPC   = 1                                                                       
TEMPERATURE = 1                                                                 
OUTPUT                                                                          
   SET 1 = 1 THRU 13, 79 THRU 91, 157 THRU 169, 235 THRU 247                    
   SET 2 = 1 THRU 26                                                            
   OLOAD = 2                                                                    
   DISPLACEMENTS = 1                                                            
$          STRESSES FOR POINTS ON PUBLISHED CURVES                              
   SET 3 = 1 THRU 12, 15,20, 28,33, 41,46, 54,59, 67,72, 80,85, 93,98,          
           106,111, 118 THRU 129, 132,137, 145,150, 158,163, 171,176,           
           184,189, 197,202, 210,215, 223,228                                   
   STRESSES = 3                                                                 
BEGIN BULK                                                                      
CNGRNT  1       14      27      40      53      66      79      92      +CNG11  
+CNG11  105     118     131     144     157     170     183     196     +CNG12  
+CNG12  209     222                                                             
CNGRNT  2       15      28      41      54      67      80      93      +CNG21  
+CNG21  106     119     132     145     158     171     184     197     +CNG22  
+CNG22  210     223                                                             
CNGRNT  3       16      29      42      55      68      81      94      +CNG31  
+CNG31  107     120     133     146     159     172     185     198     +CNG32  
+CNG32  211     224                                                             
CNGRNT  4       17      30      43      56      69      82      95      +CNG41  
+CNG41  108     121     134     147     160     173     186     199     +CNG42  
+CNG42  212     225                                                             
CNGRNT  5       18      31      44      57      70      83      96      +CNG51  
+CNG51  109     122     135     148     161     174     187     200     +CNG52  
+CNG52  213     226                                                             
CNGRNT  6       19      32      45      58      71      84      97      +CNG61  
+CNG61  110     123     136     149     162     175     188     201     +CNG62  
+CNG62  214     227                                                             
CNGRNT  7       20      33      46      59      72      85      98      +CNG71  
+CNG71  111     124     137     150     163     176     189     202     +CNG72  
+CNG72  215     228                                                             
CNGRNT  8       21      34      47      60      73      86      99      +CNG81  
+CNG81  112     125     138     151     164     177     190     203     +CNG82  
+CNG82  216     229                                                             
CNGRNT  9       22      35      48      61      74      87      100     +CNG91  
+CNG91  113     126     139     152     165     178     191     204     +CNG92  
+CNG92  217     230                                                             
CNGRNT  10      23      36      49      62      75      88      101     +CNG101 
+CNG101 114     127     140     153     166     179     192     205     +CNG102 
+CNG102 218     231                                                             
CNGRNT  11      24      37      50      63      76      89      102     +CNG111 
+CNG111 115     128     141     154     167     180     193     206     +CNG112 
+CNG112 219     232                                                             
CNGRNT  12      25      38      51      64      77      90      103     +CNG121 
+CNG121 116     129     142     155     168     181     194     207     +CNG122 
+CNG122 220     233                                                             
CQDMEM2 1       21      1       2       15      14      .00                     
CQDMEM2 2       21      2       3       16      15      .00                     
CQDMEM2 3       21      3       4       17      16      .00                     
CQDMEM2 4       21      4       5       18      17      .00                     
CQDMEM2 5       21      5       6       19      18      .00                     
CQDMEM2 6       21      6       7       20      19      .00                     
CQDMEM2 7       21      7       8       21      20      .00                     
CQDMEM2 8       21      8       9       22      21      .00                     
CQDMEM2 9       21      9       10      23      22      .00                     
CQDMEM2 10      21      10      11      24      23      .00                     
CQDMEM2 11      21      11      12      25      24      .00                     
CQDMEM2 12      21      12      13      26      25      .00                     
CQDMEM2 14      21      14      15      28      27      .00                     
CQDMEM2 15      21      15      16      29      28      .00                     
CQDMEM2 16      21      16      17      30      29      .00                     
CQDMEM2 17      21      17      18      31      30      .00                     
CQDMEM2 18      21      18      19      32      31      .00                     
CQDMEM2 19      21      19      20      33      32      .00                     
CQDMEM2 20      21      20      21      34      33      .00                     
CQDMEM2 21      21      21      22      35      34      .00                     
$ ... 196 like lines cut
GRDSET                                                  3456                    
GRID    1               .0      .0      .0                                      
GRID    2               1.0     .0      .0                                      
GRID    3               2.0     .0      .0                                      
GRID    4               3.0     .0      .0                                      
GRID    5               4.0     .0      .0                                      
GRID    6               5.0     .0      .0                                      
GRID    7               6.0     .0      .0                                      
GRID    8               7.0     .0      .0                                      
GRID    9               8.0     .0      .0                                      
GRID    10              9.0     .0      .0                                      
GRID    11              10.0    .0      .0                                      
GRID    12              11.0    .0      .0                                      
GRID    13              12.0    .0      .0                                      
GRID    14              .0      1.0     .0                                      
GRID    15              1.0     1.0     .0                                      
GRID    16              2.0     1.0     .0                                      
GRID    17              3.0     1.0     .0                                      
GRID    18              4.0     1.0     .0                                      
GRID    19              5.0     1.0     .0                                      
GRID    20              6.0     1.0     .0                                      
$ ... 227 like lines cut
MAT1    75      10.400+6        .3              12.700-675.                     
MATT1   75      100                                                             
PARAM   IRES    1                                                               
PQDMEM2 21      75      .25                                                     
SPC1    1       1       1       14      27      40      53      66      CSPC-A  
+SPC-A  79      92      105     118     131     144     157     170     CSPC-B  
+SPC-B  183     196     209     222     235                                     
SPC1    1       2       1       2       3       4       5       6       CSPC-C  
+SPC-C  7       8       9       10      11      12      13                      
TABLEM1 100                                                             +TM1    
+TM1    80.     10.4+6  150.    10.15+6 200.    9.84+6  250.    9.51+6  +TM2    
+TM2    300.    9.15+6  ENDT                                                    
TEMP    1       1       245.000 2       232.500 3       220.000                 
TEMP    1       4       207.500 5       195.000 6       182.500                 
TEMP    1       7       170.000 8       157.500 9       145.000                 
TEMP    1       10      132.500 11      120.000 12      107.500                 
TEMP    1       13      95.000  14      245.000 15      232.500                 
TEMP    1       16      220.000 17      207.500 18      195.000                 
TEMP    1       19      182.500 20      170.000 21      157.500                 
TEMP    1       22      145.000 23      132.500 24      120.000                 
TEMP    1       25      107.500 26      95.000  27      245.000                 
TEMP    1       28      232.500 29      220.000 30      207.500                 
TEMP    1       31      195.000 32      182.500 33      170.000                 
TEMP    1       34      157.500 35      145.000 36      132.500                 
TEMP    1       37      120.000 38      107.500 39      95.000                  
TEMP    1       40      245.000 41      232.500 42      220.000                 
TEMP    1       43      207.500 44      195.000 45      182.500                 
TEMP    1       46      170.000 47      157.500 48      145.000                 
TEMP    1       49      132.500 50      120.000 51      107.500                 
TEMP    1       52      95.000  53      245.000 54      232.500                 
TEMP    1       55      220.000 56      207.500 57      195.000                 
TEMP    1       58      182.500 59      170.000 60      157.500                 
$ ... 63 like lines cut
ENDDATA                                                                         
