ID    D01112A,NASTRAN                                                           
APP   DISPLACEMENT                                                              
TIME  9                                                                         
SOL   1,3                                                                       
DIAG  14                                                                        
ALTER 1 $                                                                       
PARAM   //C,N,NOP/V,N,TRUE=-1 $                                                 
INPUT   GEOM1,,,,/G1,G2,,G4,/C,N,3/C,N,1 $   QUAD1 ELEMENT                      
EQUIV   G1,GEOM1/TRUE / G2,GEOM2/TRUE / G4,GEOM4/TRUE $                         
ENDALTER $                                                                      
CEND                                                                            
TITLE    = SIMPLY-SUPPORTED RECTANGULAR PLATE WITH THERMAL GRADIENT             
SUBTITLE = NASTRAN DEMONSTRATION PROBLEM NO. D01-11-2A                          
        SPC = 5010                                                              
        TEMP(LOAD) = 20                                                         
   OUTPUT                                                                       
        DISPLACEMENT = ALL                                                      
        SPCFORCE     = ALL                                                      
        ELFORCE      = ALL                                                      
        STRESSES     = ALL                                                      
        STRAIN       = ALL                                                      
BEGIN BULK                                                                      
CORD2R  1000            .0      .0      .0      .0      .0      1.0     +COR1   
+COR1   1.0     .0      .0                                                      
MAT1    1       3.0+5           .3      1.0     .01     .0              +MAT1   
+MAT1                           1000                                            
PARAM   STRESS  0                                                               
PQUAD1  101     1       .5      1       .0104167                        +PQUAD1 
+PQUAD1 .25     -0.25                                                           
TEMPP1  20      1       .0      5.90786 2.46161 -2.46161                        
TEMPP1  20      2       .0      5.32956 2.22065 -2.22065                        
TEMPP1  20      3       .0      4.22956 1.76232 -1.76232                        
TEMPP1  20      4       .0      2.71555 1.13148 -1.13148                        
TEMPP1  20      5       .0      .93571  .38988  -.38988                         
TEMPP1  20      7       .0      5.76239 2.40100 -2.40100                        
TEMPP1  20      8       .0      5.19833 2.16597 -2.16597                        
TEMPP1  20      9       .0      4.12542 1.71892 -1.71892                        
TEMPP1  20      10      .0      2.64868 1.10362 -1.10362                        
TEMPP1  20      11      .0      .91267  .38028  -.38028                         
TEMPP1  20      13      .0      5.47503 2.28126 -2.28126                        
TEMPP1  20      14      .0      4.93910 2.05796 -2.05796                        
TEMPP1  20      15      .0      3.91969 1.63320 -1.63320                        
TEMPP1  20      16      .0      2.51660 1.04858 -1.04858                        
TEMPP1  20      17      .0      .86716  .36132  -.36132                         
TEMPP1  20      19      .0      5.05286 2.10536 -2.10536                        
TEMPP1  20      20      .0      4.55825 1.89927 -1.89927                        
TEMPP1  20      21      .0      3.61745 1.50727 -1.50727                        
TEMPP1  20      22      .0      2.32254 .96773  -.96773                         
TEMPP1  20      23      .0      .80029  .33346  -.33346                         
$ ... 30 like lines cut
ENDDATA                                                                         
       5      10 1.0E+00 1.0E+00       6 0.0     0.0                            
     421     125      53      34       0       0                                
