ID    D01121A,NASTRAN                                                           
TIME  30                                                                        
APP   HEAT                                                                      
SOL   1,1                                                                       
CEND                                                                            
TITLE    = LINEAR STEADY STATE HEAT CONDUCTION THROUGH A WASHER                 
SUBTITLE = NASTRAN DEMONSTRATION PROBLEM NO. D01-12-1A                          
LABEL    = SOLID ELEMENTS , SURFACE FILM HEAT TRANSFER                          
OLOAD    = ALL                                                                  
SPCFORCES= ALL                                                                  
THERMAL(PRINT,PUNCH) = ALL                                                      
ELFORCE  = ALL                                                                  
SUBCASE 123                                                                     
LABEL    = TEMPERATURE SPECIFIED AT OUTER BOUNDARY                              
SPC  = 351                                                                      
LOAD = 251                                                                      
BEGIN BULK                                                                      
CHBDY   701     702     AREA4   1       12      112     101                     
CHEXA1  1       200     1       2       13      12      101     102     +SOL1   
+SOL1   113     112                                                             
CHEXA2  2       200     2       3       14      13      102     103     +SOL2   
+SOL2   114     113                                                             
CORD2C  111     0       .0      .0      .0      .0      .0      100.0   +CORD111
+CORD111100.0   .0      .0                                                      
CTETRA  3       200     104     114     3       103                             
CTETRA  4       200     104     15      4       3                               
CTETRA  5       200     115     15      104     114                             
CTETRA  6       200     15      14      3       114                             
CTETRA  7       200     114     104     3       15                              
CWEDGE  8       200     4       5       15      104     105     115             
CWEDGE  9       200     5       16      15      105     116     115             
CWEDGE  10      200     5       6       16      105     106     116             
CWEDGE  11      200     6       17      16      106     117     116             
CWEDGE  12      200     6       7       17      106     107     117             
CWEDGE  13      200     7       18      17      107     118     117             
CWEDGE  14      200     7       8       18      107     108     118             
CWEDGE  15      200     8       19      18      108     119     118             
CWEDGE  16      200     8       9       19      108     109     119             
CWEDGE  17      200     9       20      19      109     120     119             
CWEDGE  18      200     9       10      20      109     110     120             
CWEDGE  19      200     10      21      20      110     121     120             
CWEDGE  20      200     10      11      21      110     111     121             
CWEDGE  21      200     11      22      21      111     122     121             
GRDSET                                          111                             
GRID    1       111     1.0     .0      .0                                      
GRID    2       111     1.1     .0      .0                                      
GRID    3       111     1.2     .0      .0                                      
GRID    4       111     1.3     .0      .0                                      
GRID    5       111     1.4     .0      .0                                      
GRID    6       111     1.5     .0      .0                                      
GRID    7       111     1.6     .0      .0                                      
GRID    8       111     1.7     .0      .0                                      
GRID    9       111     1.8     .0      .0                                      
GRID    10      111     1.9     .0      .0                                      
GRID    11      111     2.0     .0      .0                                      
GRID    12      111     1.0     4.0     .0                                      
GRID    13      111     1.1     4.0     .0                                      
GRID    14      111     1.2     4.0     .0                                      
GRID    15      111     1.3     4.0     .0                                      
GRID    16      111     1.4     4.0     .0                                      
GRID    17      111     1.5     4.0     .0                                      
GRID    18      111     1.6     4.0     .0                                      
GRID    19      111     1.7     4.0     .0                                      
GRID    20      111     1.8     4.0     .0                                      
$ ... 24 like lines cut
MAT4    200     1.0                                                             
PARAM   IRES    1                                                               
PHBDY   702                                                                     
QBDY1   251     288.5   701                                                     
SEQGP   12      1.1     13      2.1     14      3.1     15      4.1             
SEQGP   16      5.1     17      6.1     18      7.1     19      8.1             
SEQGP   20      9.1     21      10.1    22      11.1                            
SEQGP   101     1.2     102     2.2     103     3.2     104     4.2             
SEQGP   105     5.2     106     6.2     107     7.2     108     8.2             
SEQGP   109     9.2     110     10.2    111     11.2                            
SEQGP   112     1.3     113     2.3     114     3.3     115     4.3             
SEQGP   116     5.3     117     6.3     118     7.3     119     8.3             
SEQGP   120     9.3     121     10.3    122     11.3                            
SPC     351     11      1       .0      22      1       .0                      
SPC     351     111     1       .0      122     1       .0                      
ENDDATA                                                                         
