ID    D01111A,NASTRAN                                                           
APP   DISPLACEMENT                                                              
SOL   1,3                                                                       
TIME  9                                                                         
CEND                                                                            
TITLE    = SIMPLY SUPPORTED RECTANGULAR PLATE WITH A THERMAL GRADIENT           
SUBTITLE = NASTRAN DEMONSTRATION PROBLEM NO. D01-11-1A                          
       SPC = 1                                                                  
TEMP(LOAD) = 20                                                                 
   OUTPUT                                                                       
        DISPLACEMENT = ALL                                                      
        SPCFORCE     = ALL                                                      
        ELFORCE      = ALL                                                      
        STRESSES     = ALL                                                      
        STRAIN       = ALL                                                      
BEGIN BULK                                                                      
CNGRNT  1       2       THRU    59                                              
CORD2R  1000            .0      .0      .0      .0      .0      1.0     +COR1   
+COR1   1.0     .0      .0                                                      
CQUAD1  1       101     1       2       8       7                               
CQUAD1  2       101     2       3       9       8                               
CQUAD1  3       101     3       4       10      9                               
CQUAD1  4       101     4       5       11      10                              
CQUAD1  5       101     5       6       12      11                              
CQUAD1  7       101     7       8       14      13                              
CQUAD1  8       101     8       9       15      14                              
CQUAD1  9       101     9       10      16      15                              
CQUAD1  10      101     10      11      17      16                              
CQUAD1  11      101     11      12      18      17                              
CQUAD1  13      101     13      14      20      19                              
CQUAD1  14      101     14      15      21      20                              
CQUAD1  15      101     15      16      22      21                              
CQUAD1  16      101     16      17      23      22                              
CQUAD1  17      101     17      18      24      23                              
CQUAD1  19      101     19      20      26      25                              
CQUAD1  20      101     20      21      27      26                              
CQUAD1  21      101     21      22      28      27                              
CQUAD1  22      101     22      23      29      28                              
CQUAD1  23      101     23      24      30      29                              
$ ... 30 like lines cut
GRDSET                                                  6                       
GRID    1               .00     .00     .00                                     
GRID    2               1.00000 .00     .00                                     
GRID    3               2.00000 .00     .00                                     
GRID    4               3.00000 .00     .00                                     
GRID    5               4.00000 .00     .00                                     
GRID    6               5.00000 .00     .00                                     
GRID    7               .00     1.00000 .00                                     
GRID    8               1.00000 1.00000 .00                                     
GRID    9               2.00000 1.00000 .00                                     
GRID    10              3.00000 1.00000 .00                                     
GRID    11              4.00000 1.00000 .00                                     
GRID    12              5.00000 1.00000 .00                                     
GRID    13              .00     2.00000 .00                                     
GRID    14              1.00000 2.00000 .00                                     
GRID    15              2.00000 2.00000 .00                                     
GRID    16              3.00000 2.00000 .00                                     
GRID    17              4.00000 2.00000 .00                                     
GRID    18              5.00000 2.00000 .00                                     
GRID    19              .00     3.00000 .00                                     
GRID    20              1.00000 3.00000 .00                                     
$ ... 46 like lines cut
MAT1    1       3.0+5           .3      1.0     .01     .0              +MAT1   
+MAT1                           1000                                            
PARAM   IRES    1                                                               
PARAM   STRESS  0                                                               
PQUAD1  101     1       .5      1       .0104167                        +PQUAD1 
+PQUAD1 .25     -0.25                                                           
SPC1    1       34      6       12      18      24      30      36      +SPC-34 
+SPC-34 42      48      54      60      66                                      
SPC1    1       35      61      62      63      64      65      66              
SPC1    1       124     1       2       3       4       5       6               
SPC1    1       125     7       13      19      25      31      37      +SPC-5  
+SPC-5  43      49      55      61      1                                       
TEMPP1  20      1       .0      5.90786 2.46161 -2.46161                        
TEMPP1  20      2       .0      5.32956 2.22065 -2.22065                        
TEMPP1  20      3       .0      4.22956 1.76232 -1.76232                        
TEMPP1  20      4       .0      2.71555 1.13148 -1.13148                        
TEMPP1  20      5       .0      .93571  .38988  -.38988                         
TEMPP1  20      7       .0      5.76239 2.40100 -2.40100                        
TEMPP1  20      8       .0      5.19833 2.16597 -2.16597                        
TEMPP1  20      9       .0      4.12542 1.71892 -1.71892                        
TEMPP1  20      10      .0      2.64868 1.10362 -1.10362                        
TEMPP1  20      11      .0      .91267  .38028  -.38028                         
TEMPP1  20      13      .0      5.47503 2.28126 -2.28126                        
TEMPP1  20      14      .0      4.93910 2.05796 -2.05796                        
TEMPP1  20      15      .0      3.91969 1.63320 -1.63320                        
TEMPP1  20      16      .0      2.51660 1.04858 -1.04858                        
TEMPP1  20      17      .0      .86716  .36132  -.36132                         
TEMPP1  20      19      .0      5.05286 2.10536 -2.10536                        
TEMPP1  20      20      .0      4.55825 1.89927 -1.89927                        
TEMPP1  20      21      .0      3.61745 1.50727 -1.50727                        
TEMPP1  20      22      .0      2.32254 .96773  -.96773                         
TEMPP1  20      23      .0      .80029  .33346  -.33346                         
$ ... 30 like lines cut
ENDDATA                                                                         
*WEOR                                                                           
