NASTRAN FILE=PLT2                                                               
ID    D01151A,NASTRAN                                                           
APP   DISPLACEMENT                                                              
SOL   1,1                                                                       
TIME  90                                                                        
CEND                                                                            
TITLE    = ASYMMETRIC PRESSURE LOADING OF AN AXISYMMETRIC CYLINDRICAL SHELL     
SUBTITLE = NASTRAN DEMONSTRATION PROBLEM NO. D01-15-1A                          
AXISYM   = COSINE                                                               
  LOAD   = 20                                                                   
  SET 10 = 11 THRU 34, 111 THRU 231, 235, 241, 245, 251, 255, 261,              
           265, 271, 275, 281, 285, 291, 295, 301, 305, 311, 315,               
           321, 325, 331, 335, 341, 345, 351, 355, 361, 365, 371,               
           375, 381, 385, 391, 395, 401, 405, 411 THRU 415                      
  SET  9 = 111 THRU 227, 231, 234, 241, 244, 251, 254, 261, 264, 271,           
           274, 281, 284, 291, 294, 301, 304, 311, 314, 321, 324, 331,          
           334, 341, 344, 351, 354, 361, 364, 371, 374, 381, 384, 391,          
           394, 401 THRU 404                                                    
HARMONICS = ALL                                                                 
DISPLACEMENT = 10                                                               
OLOAD  = ALL                                                                    
STRESS = 9                                                                      
ELFORCE= 9                                                                      
PLOTID = NASTRAN DEMONSTRATION PROBLEM NO. D01-15-1A                            
OUTPUT(PLOT)                                                                    
PLOTTER NASTPLT                                                                 
SET 1  = ALL                                                                    
$                                                                               
$ CONVERT IDS TO NASTRAN IDS FOR ELEMENTS 111 THRU 227 (ID*1000+N)              
$                                                                               
SET 2 INCLUDE ELEMENTS 111001 THRU 227001                                       
AXES Z, X, Y                                                                    
VIEW 0.0, 0.0, 0.0                                                              
FIND SCALE, ORIGIN 1, SET 1                                                     
PTITLE = FULL MODEL                                                             
PLOT SET 1, ORIGIN 1                                                            
FIND SCALE, ORIGIN 2, SET 2                                                     
PTITLE = LOADED SECTION (TRAPAX) AND TRANSITION SECTION (TRIAAX)                
PLOT SET 2, ORIGIN 2                                                            
BEGIN BULK                                                                      
AXIC    10                                                                      
CTRAPAX 111     5       111     112     122     121                             
CTRAPAX 112     5       112     113     123     122                             
CTRAPAX 113     5       113     114     124     123                             
CTRAPAX 121     5       121     122     132     131                             
CTRAPAX 122     5       122     123     133     132                             
CTRAPAX 123     5       123     124     134     133                             
CTRAPAX 131     5       131     132     142     141                             
CTRAPAX 132     5       132     133     143     142                             
CTRAPAX 133     5       133     134     144     143                             
CTRAPAX 141     5       141     142     152     151                             
CTRAPAX 142     5       142     143     153     152                             
CTRAPAX 143     5       143     144     154     153                             
CTRAPAX 151     5       151     152     162     161                             
CTRAPAX 152     5       152     153     163     162                             
CTRAPAX 153     5       153     154     164     163                             
CTRAPAX 161     5       161     162     172     171                             
CTRAPAX 162     5       162     163     173     172                             
CTRAPAX 163     5       163     164     174     173                             
CTRAPAX 171     5       171     172     182     181                             
CTRAPAX 172     5       172     173     183     182                             
$ ... 73 like lines cut
CTRIAAX 181     10      181     192     191                                     
CTRIAAX 182     10      181     182     192                                     
CTRIAAX 183     10      182     193     192                                     
CTRIAAX 184     10      182     183     193                                     
CTRIAAX 185     10      183     194     193                                     
CTRIAAX 186     10      183     184     194                                     
CTRIAAX 187     10      184     195     194                                     
CTRIAAX 191     10      191     192     201                                     
CTRIAAX 192     10      192     202     201                                     
CTRIAAX 193     10      192     203     202                                     
CTRIAAX 194     10      192     193     203                                     
CTRIAAX 195     10      193     194     203                                     
CTRIAAX 196     10      194     204     203                                     
CTRIAAX 197     10      194     205     204                                     
CTRIAAX 198     10      194     195     205                                     
CTRIAAX 201     10      201     212     211                                     
CTRIAAX 202     10      201     203     212                                     
CTRIAAX 203     10      202     203     212                                     
CTRIAAX 204     10      212     203     213                                     
CTRIAAX 205     10      203     214     213                                     
$ ... 17 like lines cut
MAT1    15      66666.7         .3                                              
POINTAX 11      111     .0                                                      
POINTAX 14      114     .0                                                      
POINTAX 21      121     .0                                                      
POINTAX 34      134     .0                                                      
PRESAX  20      -7.11111114     124     -7.162  7.162                           
PRESAX  20      -7.11111124     134     -7.162  7.162                           
PRESAX  20      -7.11111134     144     -7.162  7.162                           
PRESAX  20      -7.11111144     154     -7.162  7.162                           
PRESAX  20      -7.11111154     164     -7.162  7.162                           
PTRAPAX 5               15      .0      7.1                                     
PTRIAAX 10              15      .0      3.581   7.162                           
RINGAX  111             14.5    .0                      3456                    
RINGAX  112             14.7    .0                      3456                    
RINGAX  113             15.3    .0                      3456                    
RINGAX  114             15.5    .0                      3456                    
RINGAX  121             14.5    .375                    456                     
RINGAX  122             14.8    .375                    456                     
RINGAX  123             15.2    .375                    456                     
RINGAX  124             15.5    .375                    456                     
RINGAX  131             14.5    .75                     456                     
RINGAX  132             14.7    .75                     456                     
RINGAX  133             15.3    .75                     456                     
RINGAX  134             15.5    .75                     456                     
RINGAX  141             14.5    1.125                   456                     
RINGAX  142             14.8    1.125                   456                     
RINGAX  143             15.2    1.125                   456                     
RINGAX  144             15.5    1.125                   456                     
RINGAX  151             14.5    1.5                     456                     
RINGAX  152             14.7    1.5                     456                     
RINGAX  153             15.3    1.5                     456                     
RINGAX  154             15.5    1.5                     456                     
$ ... 126 like lines cut
ENDDATA                                                                         
