ID    D01131A,NASTRAN                                                           
APP   DISPLACEMENT                                                              
SOL   1,0                                                                       
TIME  15                                                                        
CEND                                                                            
TITLE    = LOADS ON A LONG PIPE USING LINEAR ISOPARAMETRIC ELEMENTS             
SUBTITLE = NASTRAN DEMONSTRATION PROBLEM NO. D01-13-1A                          
DISP  = ALL                                                                     
STRESS= ALL                                                                     
SPC   = 100                                                                     
SUBCASE   1                                                                     
LABEL = PRESSURE LOAD                                                           
LOAD  = 400                                                                     
SUBCASE   2                                                                     
LABEL = THERMAL LOAD                                                            
TEMP(LOAD) = 500                                                                
BEGIN BULK                                                                      
CIHEX1  1       200     1       2       20      19      7       8       +HEX1-1 
+HEX1-1 26      25                                                              
CIHEX1  2       200     2       3       21      20      8       9       +HEX1-2 
+HEX1-2 27      26                                                              
CIHEX1  3       200     3       4       22      21      9       10      +HEX1-3 
+HEX1-3 28      27                                                              
CIHEX1  4       200     4       5       23      22      10      11      +HEX1-4 
+HEX1-4 29      28                                                              
CIHEX1  5       200     5       6       24      23      11      12      +HEX1-5 
+HEX1-5 30      29                                                              
CIHEX1  6       200     19      20      38      37      25      26      +HEX1-6 
+HEX1-6 44      43                                                              
CIHEX1  7       200     20      21      39      38      26      27      +HEX1-7 
+HEX1-7 45      44                                                              
CIHEX1  8       200     21      22      40      39      27      28      +HEX1-8 
+HEX1-8 46      45                                                              
CIHEX1  9       200     22      23      41      40      28      29      +HEX1-9 
+HEX1-9 47      46                                                              
CIHEX1  10      200     23      24      42      41      29      30      +HEX1-10
+HEX1-1048      47                                                              
CIHEX1  11      200     37      38      56      55      43      44      +HEX1-11
+HEX1-1162      61                                                              
CIHEX1  12      200     38      39      57      56      44      45      +HEX1-12
+HEX1-1263      62                                                              
CIHEX1  13      200     39      40      58      57      45      46      +HEX1-13
+HEX1-1364      63                                                              
CIHEX1  14      200     40      41      59      58      46      47      +HEX1-14
+HEX1-1465      64                                                              
CIHEX1  15      200     41      42      60      59      47      48      +HEX1-15
+HEX1-1566      65                                                              
CIHEX1  16      200     55      56      74      73      61      62      +HEX1-16
+HEX1-1680      79                                                              
CIHEX1  17      200     56      57      75      74      62      63      +HEX1-17
+HEX1-1781      80                                                              
CIHEX1  18      200     57      58      76      75      63      64      +HEX1-18
+HEX1-1882      81                                                              
CIHEX1  19      200     58      59      77      76      64      65      +HEX1-19
+HEX1-1983      82                                                              
CIHEX1  20      200     59      60      78      77      65      66      +HEX1-20
+HEX1-2084      83                                                              
$ ... 40 like lines cut
CNGRNT  1       6       11      16      21      26      31      36              
CNGRNT  2       7       12      17      22      27      32      37              
CNGRNT  3       8       13      18      23      28      33      38              
CNGRNT  4       9       14      19      24      29      34      39              
CNGRNT  5       10      15      20      25      30      35      40              
CORD2C  1       0       .0      .0      .0      .0      .0      100.0   +CORD2-1
+CORD2-1100.0   .0      .0                                                      
CORD2C  2               .0      .0      .5      .0      .0      100.0   +CORD2-2
+CORD2-2100.0   .0      2.0                                                     
CORD2C  3               .0      .0      1.0     .0      .0      100.0   +CORD2-3
+CORD2-3100.0   .0      2.0                                                     
GRDSET          1                               1       456                     
GRID    1               4.0     -14.0                                           
GRID    2               4.2     -14.0                                           
GRID    3               4.4     -14.0                                           
GRID    4               4.6     -14.0                                           
GRID    5               4.8     -14.0                                           
GRID    6               5.0     -14.0                                           
GRID    7       2       4.0     -14.0           2                               
GRID    8       2       4.2     -14.0           2                               
GRID    9       2       4.4     -14.0           2                               
GRID    10      2       4.6     -14.0           2                               
GRID    11      2       4.8     -14.0           2                               
GRID    12      2       5.0     -14.0           2                               
GRID    13      3       4.0     -14.0           3                               
GRID    14      3       4.2     -14.0           3                               
GRID    15      3       4.4     -14.0           3                               
GRID    16      3       4.6     -14.0           3                               
GRID    17      3       4.8     -14.0           3                               
GRID    18      3       5.0     -14.0           3                               
GRID    19              4.0     -7.0                                            
GRID    20              4.2     -7.0                                            
$ ... 70 like lines cut
MAT1    300     3.+7            .3      7.535-4 1.428-5 .0                      
PIHEX   200     300             4       4.5     10.0                            
PLOAD3  400     -10.0   1       1       25      21      7       31              
PLOAD3  400     -10.0   6       19      43      26      25      49              
PLOAD3  400     -10.0   11      37      61      31      43      67              
PLOAD3  400     -10.0   16      55      79      36      61      85              
SPC1    100     2       1       THRU    18                                      
SPC1    100     2       73      THRU    90                                      
SPC1    100     3       1       THRU    6                                       
SPC1    100     3       13      THRU    18                                      
SPC1    100     3       19      THRU    24                                      
SPC1    100     3       31      THRU    36                                      
SPC1    100     3       37      THRU    42                                      
SPC1    100     3       49      THRU    54                                      
SPC1    100     3       55      THRU    60                                      
SPC1    100     3       67      THRU    72                                      
SPC1    100     3       73      THRU    78                                      
SPC1    100     3       85      THRU    90                                      
TEMP    500     1       100.0   7       100.0   13      100.0                   
TEMP    500     2       78.14   8       78.14   14      78.14                   
TEMP    500     3       57.29   9       57.29   15      57.29                   
TEMP    500     4       37.37   10      37.37   16      37.37                   
TEMP    500     5       18.29   11      18.29   17      18.29                   
TEMP    500     19      100.0   25      100.0   31      100.0                   
TEMP    500     20      78.14   26      78.14   32      78.14                   
TEMP    500     21      57.29   27      57.29   33      57.29                   
TEMP    500     22      37.37   28      37.37   34      37.37                   
TEMP    500     23      18.29   29      18.29   35      18.29                   
TEMP    500     37      100.0   43      100.0   49      100.0                   
TEMP    500     38      78.14   44      78.14   50      78.14                   
TEMP    500     39      57.29   45      57.29   51      57.29                   
TEMP    500     40      37.37   46      37.37   52      37.37                   
TEMP    500     41      18.29   47      18.29   53      18.29                   
TEMP    500     55      100.0   61      100.0   67      100.0                   
TEMP    500     56      78.14   62      78.14   68      78.14                   
TEMP    500     57      57.29   63      57.29   69      57.29                   
TEMP    500     58      37.37   64      37.37   70      37.37                   
TEMP    500     59      18.29   65      18.29   71      18.29                   
$ ... 5 like lines cut
TEMPD   500     .0                                                              
ENDDATA                                                                         
