$ NASTRAN FILES=INP1                                                            
ID    D02035A,NASTRAN                                                           
APP   DISP,SUBS                                                                 
SOL   9,0                                                                       
TIME  40                                                                        
DIAG  14,23                                                                     
CEND                                                                            
SUBSTRUCTURE PHASE3                                                             
PASSWORD = MDLSYN                                                               
  SOF(1) = FT19,500 $ DEC VAX                                                   
BRECOVER  ABASIC                                                                
SOFPRINT TOC                                                                    
ENDSUBS                                                                         
TITLE    = TRUSS DYNAMIC ANALYSIS USING AUTOMATED MODAL SYNTHESIS               
SUBTITLE = NASTRAN DEMONSTRATION PROBLEM NO. D02-03-5A                          
LABEL    = RECOVER ABASIC , RUN 5, PHASE 3, RF 9                                
MAXLINES = 100000                                                               
IC   = 521                                                                      
TSTEP= 40                                                                       
LOAD = 980                                                                      
DISP = ALL                                                                      
ELFO = ALL                                                                      
STRE = ALL                                                                      
BEGIN BULK                                                                      
CROD    1       1       1       2                                               
CROD    2       1       2       3                                               
CROD    11      1       11      12                                              
CROD    12      1       12      13                                              
CROD    21      1       21      22                                              
CROD    22      1       22      23                                              
CROD    31      1       31      32                                              
CROD    32      1       32      33                                              
CROD    41      1       41      42                                              
CROD    42      1       42      43                                              
CROD    51      1       51      52                                              
CROD    52      1       52      53                                              
CROD    111     1       1       11                                              
CROD    112     1       2       12                                              
CROD    113     1       3       13                                              
CROD    121     1       11      21                                              
CROD    122     1       12      22                                              
CROD    123     1       13      23                                              
CROD    131     1       21      31                                              
CROD    132     1       22      32                                              
$ ... 17 like lines cut
GRAV    980             980.0   .0      -1.0    .0                              
GRDSET                                                  3456                    
GRID    1               .0      -30.0   .0                                      
GRID    2               .0      .0      .0                                      
GRID    3               .0      30.0    .0                                      
GRID    11              40.0    -30.0   .0                                      
GRID    12              40.0    .0      .0                                      
GRID    13              40.0    30.0    .0                                      
GRID    21              80.0    -30.0   .0                                      
GRID    22              80.0    .0      .0                                      
GRID    23              80.0    30.0    .0                                      
GRID    31              120.0   -30.0   .0                                      
GRID    32              120.0   .0      .0                                      
GRID    33              120.0   30.0    .0                                      
GRID    41              160.0   -30.0   .0                                      
GRID    42              160.0   .0      .0                                      
GRID    43              160.0   30.0    .0                                      
GRID    51              200.0   -30.0   .0                                      
GRID    52              200.0   .0      .0                                      
GRID    53              200.0   30.0    .0                                      
MAT1    1       10.0+6          .3      2.5-3                                   
PARAM   GRDPNT  0                                                               
PROD    1       1       .3                                                      
TIC     521     42      2       .1                                              
TSTEP   40      40      2.0-2   1                                               
ENDDATA                                                                         
