NASTRAN FILES=PLT2                                                              
ID    D03014A,NASTRAN                                                           
ALTER 1 $                                                                       
PARAM   //C,N,NOP/V,N,TRUE=-1 $                                                 
INPUT,  ,GEOM2,,,/G1,G2,,G4,/C,N,3/C,N,1 $                                      
EQUIV   G1,GEOM1/TRUE / G2,GEOM2/TRUE / G4,GEOM4/TRUE $                         
ENDALTER $                                                                      
APP      DISPLACEMENT                                                           
SOL      3,1                                                                    
DIAG     14                                                                     
TIME     65                                                                     
CEND                                                                            
TITLE    =         VIBRATION OF A 20 X 40 HALF PLATE                            
SUBTITLE = NASTRAN DEMONSTRATION PROBLEM NO. D03-01-4A                          
$                                                                               
  METHOD = 20 $ FEER - NO MODES                                                 
     SPC = 20040   $ INPUT VERSION                                              
$                  ROOTS ARE AT THE FOLLOWING FREQUENCIES (THEORETICAL)         
$       MODE    M       N       FREQ                                            
$       1       1       1       9.068997E-1                                     
$       2       1       2       2.267249                                        
$       5       1       3       4.534498                                        
$       6       3       1       4.534498                                        
$       7       3       2       5.894848                                        
$       9       1       4       7.708647                                        
$                                                                               
OUTPUT                                                                          
   SET 1 = 1 THRU 21, 64 THRU 84, 127 THRU 147, 190 THRU 210,                   
           253 THRU 273, 316 THRU 336, 379 THRU 399, 442 THRU 462,              
           505 THRU 525, 568 THRU 588, 631 THRU 651, 694 THRU 714,              
           757 THRU 777, 820 THRU 840, 841 THRU 861                             
   DISPLACEMENTS = 1                                                            
$                                                                               
PLOTID = NASTRAN DEMONSTRATION PROBLEM NO. D03-01-4A                            
OUTPUT(PLOT)                                                                    
PLOTTER NASTPLT                                                                 
        SET 1 INCLUDE PLOTEL                                                    
        SET 2 INCLUDE QUAD1                                                     
        MAXIMUM DEFORMATION  1.0                                                
        FIND SCALE, ORIGIN 10                                                   
PTITLE = ALL QUADS IN THE PLATE                                                 
PLOT ORIGIN 10, SET 2, LABELS                                                   
        FIND SCALE, ORIGIN 11                                                   
PTITLE = MODE SHAPES USING PLOTEL ELEMENTS                                      
PLOT MODAL DEFORMATION 1, ORIGIN 11, SHAPE                                      
BEGIN BULK                                                                      
EIGR    2       INV     .85     .89     1       1       0               CSIMPL-I
+SIMPL-IMAX                                                                     
EIGR    3       INV     .89     1.0     1       3       0               +EIG3-I 
+EIG3-I MAX                                                                     
EIGR    4       DET     .89     1.0     1       1       0               +EIG4-D 
+EIG4-D MAX                                                                     
EIGR    5       INV     .89     2.4     1       3       0               +EIG5-2 
+EIG5-2 MAX                                                                     
EIGR    6       DET     .89     2.4     2       2       0               +EIG6-2 
+EIG6-2 MAX                                                                     
EIGR    7       INV     .89     6.1     5       5       0               +EIG7-5 
+EIG7-5 MAX                                                                     
EIGR    9       INV     .89     14.5    4       10      0               +EIG9-10
+EIG9-10MAX                                                                     
EIGR    11      INV     .89     29.0    20      20      0               +EIG1120
+EIG1120MAX                                                                     
EIGR    20      FEER    .87                     1                       +FEER   
+FEER   MAX                                                                     
MAT1    2       3.0+7           .300    200.0                           +MAT1   
+MAT1   30000.  28000.                                                          
PARAM   GRDPNT  421                                                             
PLOTEL  1000    1       21              1001    21      861                     
PLOTEL  1002    861     841             1003    841     757                     
PLOTEL  1004    757     673             1005    673     589                     
PLOTEL  1006    589     505             1007    505     421                     
PLOTEL  1008    421     337             1009    337     253                     
PLOTEL  1010    253     169             1011    169     85                      
PLOTEL  1012    85      1               1013    5       89                      
PLOTEL  1014    89      173             1015    173     257                     
PLOTEL  1016    257     341             1017    341     425                     
PLOTEL  1018    425     509             1019    509     593                     
PLOTEL  1020    593     677             1021    677     761                     
PLOTEL  1022    761     845             1023    849     765                     
PLOTEL  1024    765     681             1025    681     597                     
PLOTEL  1026    597     513             1027    513     429                     
PLOTEL  1028    429     345             1029    345     261                     
PLOTEL  1030    261     177             1031    177     93                      
PLOTEL  1032    93      9               1033    13      97                      
PLOTEL  1034    97      181             1035    181     265                     
PLOTEL  1036    265     349             1037    349     433                     
PLOTEL  1038    433     517             1039    517     601                     
$ ... 29 like lines cut
PQUAD1  101     2       1.0     2       .0833333                6.04393 +PQUAD1 
+PQUAD1 .5      .0                                                              
ENDDATA                                                                         
      20      40 5.0E-01 5.0E-01     126 0.0     0.0                            
      35       5      35      34       0       0                                
