NASTRAN FILES=PLT2                                                              
ID    D03011A,NASTRAN                                                           
APP   DISPLACEMENT                                                              
SOL   3,1                                                                       
TIME  35                                                                        
CEND                                                                            
TITLE    = VIBRATIONS OF A 10 BY 20 PLATE                                       
SUBTITLE = NASTRAN DEMONSTRATION PROBLEM NO. D03-01-1A                          
$                                                                               
     SPC = 37                                                                   
  METHOD = 5 $ ENCLOSE 2 MODES - FINDS 3 ROOTS                                  
$              ROOTS ARE AT THE FOLLOWING FREQUENCIES (THEORETICAL)             
$       MODE    M       N       FREQ                                            
$       1       1       1       9.068997E-1                                     
$       2       1       2       2.267249                                        
$       5       1       3       4.534498                                        
$       6       3       1       4.534498                                        
$       7       3       2       5.894848                                        
$       9       1       4       7.708647                                        
$                                                                               
OUTPUT                                                                          
   SET 1 = 1 THRU 11, 34 THRU 44, 56 THRU 66, 78 THRU 88, 111 THRU 121          
   SET 2 = 1 THRU 12, 22,23,33,34,44,45,55,56,66,67,77,78,88,89,                
           99,100, 110 THRU 121                                                 
   DISPLACEMENTS = 1                                                            
   SPCFORCE = 2                                                                 
$                                                                               
$                                                                               
$                                                                               
PLOTID = NASTRAN DEMONSTRATION PROBLEM NO. D03-01-1A                            
OUTPUT(PLOT)                                                                    
PLOTTER NASTPLT                                                                 
        SET 1 INCLUDE PLOTEL                                                    
        SET 2 INCLUDE QUAD1                                                     
        MAXIMUM DEFORMATION  1.0                                                
        FIND SCALE, ORIGIN 10                                                   
PTITLE = ALL QUADS IN THE PLATE                                                 
PLOT ORIGIN 10, SET 2, LABELS                                                   
PLOT SET 2,SHRINK .6,NOFIND                                                     
PLOT SET 2,HIDDEN,NOFIND                                                        
        FIND SCALE, ORIGIN 11                                                   
PTITLE = MODE SHAPES USING PLOTEL ELEMENTS                                      
PLOT MODAL DEFORMATION 1, ORIGIN 11, SHAPE                                      
BEGIN BULK                                                                      
CNGRNT  1       2       THRU    219                                             
CQUAD1  1       23      1       2       13      12      .00                     
CQUAD1  2       23      2       3       14      13      .00                     
CQUAD1  3       23      3       4       15      14      .00                     
CQUAD1  4       23      4       5       16      15      .00                     
CQUAD1  5       23      5       6       17      16      .00                     
CQUAD1  6       23      6       7       18      17      .00                     
CQUAD1  7       23      7       8       19      18      .00                     
CQUAD1  8       23      8       9       20      19      .00                     
CQUAD1  9       23      9       10      21      20      .00                     
CQUAD1  10      23      10      11      22      21      .00                     
CQUAD1  12      23      12      13      24      23      .00                     
CQUAD1  13      23      13      14      25      24      .00                     
CQUAD1  14      23      14      15      26      25      .00                     
CQUAD1  15      23      15      16      27      26      .00                     
CQUAD1  16      23      16      17      28      27      .00                     
CQUAD1  17      23      17      18      29      28      .00                     
CQUAD1  18      23      18      19      30      29      .00                     
CQUAD1  19      23      19      20      31      30      .00                     
CQUAD1  20      23      20      21      32      31      .00                     
CQUAD1  21      23      21      22      33      32      .00                     
$ ... 180 like lines cut
EIGR    2       INV     .85     .89     1       1       0               CSIMPL-I
+SIMPL-IMAX                                                                     
EIGR    3       INV     .89     1.0     1       3       0               +EIG3-1 
+EIG3-1 MAX                                                                     
EIGR    4       DET     .89     1.0     1       1       0               +EIG4-1 
+EIG4-1 MAX                                                                     
EIGR    5       INV     .89     2.4     1       3       0               +EIG5-2 
+EIG5-2 MAX                                                                     
EIGR    6       DET     .89     2.4     2       2       0               +EIG6-2 
+EIG6-2 MAX                                                                     
EIGR    7       INV     .89     6.1     5       5       0               +EIG7-5 
+EIG7-5 MAX                                                                     
EIGR    8       DET     .89     6.1     5       5       0               +EIG8-5 
+EIG8-5 MAX                                                                     
EIGR    9       INV     .89     14.5    4       10      0               +EIG9-10
+EIG9-10MAX                                                                     
EIGR    10      DET     .89     14.5    5       5       0               +EIG1010
+EIG1010MAX                                                                     
EIGR    11      INV     .89     29.0    20      20      0               +EIG1120
+EIG1120MAX                                                                     
EIGR    12      DET     .89     29.0    20      20      0               +EIG1220
+EIG1220MAX                                                                     
GRDSET                                                  126                     
GRID    1               .00000  .00000  .00000                                  
GRID    2               1.00000 .00000  .00000                                  
GRID    3               2.00000 .00000  .00000                                  
GRID    4               3.00000 .00000  .00000                                  
GRID    5               4.00000 .00000  .00000                                  
GRID    6               5.00000 .00000  .00000                                  
GRID    7               6.00000 .00000  .00000                                  
GRID    8               7.00000 .00000  .00000                                  
GRID    9               8.00000 .00000  .00000                                  
GRID    10              9.00000 .00000  .00000                                  
GRID    11              10.00000.00000  .00000                                  
GRID    12              .00000  1.00000 .00000                                  
GRID    13              1.00000 1.00000 .00000                                  
GRID    14              2.00000 1.00000 .00000                                  
GRID    15              3.00000 1.00000 .00000                                  
GRID    16              4.00000 1.00000 .00000                                  
GRID    17              5.00000 1.00000 .00000                                  
GRID    18              6.00000 1.00000 .00000                                  
GRID    19              7.00000 1.00000 .00000                                  
GRID    20              8.00000 1.00000 .00000                                  
$ ... 211 like lines cut
MAT1    2       3.0+7           .300    200.0                           +MAT1   
+MAT1   30000.  28000.                                                          
PARAM   GRDPNT  111                                                             
PLOTEL  300     23      1                                                       
PLOTEL  301     1       11              302     11      231                     
PLOTEL  303     231     221             304     221     199                     
PLOTEL  305     199     201             306     201     203                     
PLOTEL  307     203     205             308     205     207                     
PLOTEL  309     207     209             310     187     185                     
PLOTEL  311     185     183             312     183     181                     
PLOTEL  313     181     179             314     179     177                     
PLOTEL  315     199     177             316     177     155                     
PLOTEL  317     155     157             318     157     159                     
PLOTEL  319     159     161             320     161     163                     
PLOTEL  321     163     165             322     143     141                     
PLOTEL  323     141     139             324     139     137                     
PLOTEL  325     137     135             326     135     133                     
PLOTEL  327     155     133             328     133     111                     
PLOTEL  329     111     113             330     113     115                     
PLOTEL  331     115     117             332     117     119                     
PLOTEL  333     119     121             334     99      97                      
PLOTEL  335     97      95              336     95      93                      
PLOTEL  337     93      91              338     91      89                      
$ ... 30 like lines cut
PQUAD1  23      2       1.0     2       .0833333                6.04393 +PQUAD1 
+PQUAD1 .5      .0                                                              
SPC1    37      5       1       12      23      34      45      56      +31001H 
+31001H 67      78      89      100     111     122     133     144     +31002H 
+31002H 155     166     177     188     199     210     221                     
SPC1    37      34      11      22      33      44      55      66      +11001H 
+11001H 77      88      99      110     121     132     143     154     +11002H 
+11002H 165     176     187     198     209     220     231                     
SPC1    37      35      1       2       3       4       5       6       +41001H 
+41001H 7       8       9       10      11                                      
SPC1    37      35      221     222     223     224     225     226     +21001H 
+21001H 227     228     229     230     231                                     
ENDDATA                                                                         
