NASTRAN FILES=PLT2                                                              
ID    D03012A,NASTRAN                                                           
APP   DISPLACEMENT                                                              
SOL   3,1                                                                       
TIME  65                                                                        
CEND                                                                            
TITLE    =         VIBRATION OF A 20 X 40 HALF PLATE                            
SUBTITLE = NASTRAN DEMONSTRATION PROBLEM NO. D03-01-2A                          
$                                                                               
  METHOD = 20 $ FEER - NO MODES                                                 
     SPC = 37                                                                   
$                  ROOTS ARE AT THE FOLLOWING FREQUENCIES (THEORETICAL)         
$       MODE    M       N       FREQ                                            
$       1       1       1       9.068997E-1                                     
$       2       1       2       2.267249                                        
$       5       1       3       4.534498                                        
$       6       3       1       4.534498                                        
$       7       3       2       5.894848                                        
$       9       1       4       7.708647                                        
$                                                                               
OUTPUT                                                                          
   SET 1 = 1 THRU 21, 64 THRU 84, 127 THRU 147, 190 THRU 210,                   
           253 THRU 273, 316 THRU 336, 379 THRU 399, 442 THRU 462,              
           505 THRU 525, 568 THRU 588, 631 THRU 651, 694 THRU 714,              
           757 THRU 777, 820 THRU 840, 841 THRU 861                             
   DISPLACEMENTS = 1                                                            
$                                                                               
$                                                                               
$                                                                               
PLOTID = NASTRAN DEMONSTRATION PROBLEM NO. D03-01-2A                            
OUTPUT(PLOT)                                                                    
PLOTTER NASTPLT                                                                 
        SET 1 INCLUDE PLOTEL                                                    
        SET 2 INCLUDE QUAD1                                                     
        MAXIMUM DEFORMATION  1.0                                                
        FIND SCALE, ORIGIN 10                                                   
PTITLE = ALL QUADS IN THE PLATE                                                 
PLOT ORIGIN 10, SET 2, LABELS                                                   
        FIND SCALE, ORIGIN 11                                                   
PTITLE = MODE SHAPES USING PLOTEL ELEMENTS                                      
PLOT MODAL DEFORMATION 1, ORIGIN 11, SHAPE                                      
BEGIN BULK                                                                      
CNGRNT  1       2       THRU    839                                             
CQUAD1  1       101     1       2       23      22      .0                      
CQUAD1  2       101     2       3       24      23      .0                      
CQUAD1  3       101     3       4       25      24      .0                      
CQUAD1  4       101     4       5       26      25      .0                      
CQUAD1  5       101     5       6       27      26      .0                      
CQUAD1  6       101     6       7       28      27      .0                      
CQUAD1  7       101     7       8       29      28      .0                      
CQUAD1  8       101     8       9       30      29      .0                      
CQUAD1  9       101     9       10      31      30      .0                      
CQUAD1  10      101     10      11      32      31      .0                      
CQUAD1  11      101     11      12      33      32      .0                      
CQUAD1  12      101     12      13      34      33      .0                      
CQUAD1  13      101     13      14      35      34      .0                      
CQUAD1  14      101     14      15      36      35      .0                      
CQUAD1  15      101     15      16      37      36      .0                      
CQUAD1  16      101     16      17      38      37      .0                      
CQUAD1  17      101     17      18      39      38      .0                      
CQUAD1  18      101     18      19      40      39      .0                      
CQUAD1  19      101     19      20      41      40      .0                      
CQUAD1  20      101     20      21      42      41      .0                      
$ ... 780 like lines cut
EIGR    2       INV     .85     .89     1       1       0               CSIMPL-I
+SIMPL-IMAX                                                                     
EIGR    3       INV     .89     1.0     1       3       0               +EIG3-I 
+EIG3-I MAX                                                                     
EIGR    4       DET     .89     1.0     1       1       0               +EIG4-D 
+EIG4-D MAX                                                                     
EIGR    5       INV     .89     2.4     1       3       0               +EIG5-2 
+EIG5-2 MAX                                                                     
EIGR    6       DET     .89     2.4     2       2       0               +EIG6-2 
+EIG6-2 MAX                                                                     
EIGR    7       INV     .89     6.1     5       5       0               +EIG7-5 
+EIG7-5 MAX                                                                     
EIGR    9       INV     .89     14.5    4       10      0               +EIG9-10
+EIG9-10MAX                                                                     
EIGR    11      INV     .89     29.0    20      20      0               +EIG1120
+EIG1120MAX                                                                     
EIGR    20      FEER    .87                     1                       +FEER   
+FEER   MAX                                                                     
GRDSET                                                  126                     
GRID    1       0       .0      .0      .0      0       126                     
GRID    2       0       .5      .0      .0      0       126                     
GRID    3       0       1.0     .0      .0      0       126                     
GRID    4       0       1.5     .0      .0      0       126                     
GRID    5       0       2.0     .0      .0      0       126                     
GRID    6       0       2.5     .0      .0      0       126                     
GRID    7       0       3.0     .0      .0      0       126                     
GRID    8       0       3.5     .0      .0      0       126                     
GRID    9       0       4.0     .0      .0      0       126                     
GRID    10      0       4.5     .0      .0      0       126                     
GRID    11      0       5.0     .0      .0      0       126                     
GRID    12      0       5.5     .0      .0      0       126                     
GRID    13      0       6.0     .0      .0      0       126                     
GRID    14      0       6.5     .0      .0      0       126                     
GRID    15      0       7.0     .0      .0      0       126                     
GRID    16      0       7.5     .0      .0      0       126                     
GRID    17      0       8.0     .0      .0      0       126                     
GRID    18      0       8.5     .0      .0      0       126                     
GRID    19      0       9.0     .0      .0      0       126                     
GRID    20      0       9.5     .0      .0      0       126                     
$ ... 841 like lines cut
MAT1    2       3.0+7           .300    200.0                           +MAT1   
+MAT1   30000.  28000.                                                          
PARAM   GRDPNT  421                                                             
PLOTEL  1000    1       21              1001    21      861                     
PLOTEL  1002    861     841             1003    841     757                     
PLOTEL  1004    757     673             1005    673     589                     
PLOTEL  1006    589     505             1007    505     421                     
PLOTEL  1008    421     337             1009    337     253                     
PLOTEL  1010    253     169             1011    169     85                      
PLOTEL  1012    85      1               1013    5       89                      
PLOTEL  1014    89      173             1015    173     257                     
PLOTEL  1016    257     341             1017    341     425                     
PLOTEL  1018    425     509             1019    509     593                     
PLOTEL  1020    593     677             1021    677     761                     
PLOTEL  1022    761     845             1023    849     765                     
PLOTEL  1024    765     681             1025    681     597                     
PLOTEL  1026    597     513             1027    513     429                     
PLOTEL  1028    429     345             1029    345     261                     
PLOTEL  1030    261     177             1031    177     93                      
PLOTEL  1032    93      9               1033    13      97                      
PLOTEL  1034    97      181             1035    181     265                     
PLOTEL  1036    265     349             1037    349     433                     
PLOTEL  1038    433     517             1039    517     601                     
$ ... 29 like lines cut
PQUAD1  101     2       1.0     2       .0833333                6.04393 +PQUAD1 
+PQUAD1 .5      .0                                                              
SPC1    37      5       1       22      43      64      85      106     +31001H 
+31001H 127     148     169     190     211     232     253     274     +31002H 
+31002H 295     316     337     358     379     400     421     442     +31003H 
+31003H 463     484     505     526     547     568     589     610     +31004H 
+31004H 631     652     673     694     715     736     757     778     +31005H 
+31005H 799     820     841                                                     
SPC1    37      34      21      42      63      84      105     126     +11001H 
+11001H 147     168     189     210     231     252     273     294     +11002H 
+11002H 315     336     357     378     399     420     441     462     +11003H 
+11003H 483     504     525     546     567     588     609     630     +11004H 
+11004H 651     672     693     714     735     756     777     798     +11005H 
+11005H 819     840     861                                                     
SPC1    37      35      1       2       3       4       5       6       +41001H 
+41001H 7       8       9       10      11      12      13      14      +41002H 
+41002H 15      16      17      18      19      20      21                      
SPC1    37      35      841     842     843     844     845     846     +21001H 
+21001H 847     848     849     850     851     852     853     854     +21002H 
+21002H 855     856     857     858     859     860     861                     
ENDDATA                                                                         
*WEOR                                                                           
TYPE 1                                                                          
