ID    D03083A,NASTRAN                                                           
APP   DISPLACEMENT                                                              
SOL   3,0                                                                       
TIME  14                                                                        
DIAG  21,22                                                                     
CEND                                                                            
TITLE    = HELICOPTER MAIN ROTOR PYLON ON A RIGID-BODY FUSELAGE                 
SUBTITLE = NASTRAN DEMONSTRATION PROBLEM NO. D03-08-3A (PARAM OPT = -1)         
LABEL    = NORMAL MODES ANALYSIS USING RIGID ELEMENTS                           
METHOD = 1000                                                                   
OUTPUT                                                                          
ECHO   = BOTH                                                                   
VECTOR = ALL                                                                    
MPCFORCE = ALL                                                                  
BEGIN BULK                                                                      
CBAR    3530251 353025  200070  200078  1.0     .0      .0      1        MR G/B 
CBAR    4500050 450007  200079  200086  1.0     .0      .0      1        MRBRG1 
+MRBRG1 56                                                                      
CBAR    4500070 450007  200086  200095  1.0     .0      .0      1        MR MAST
CBAR    4500071 450007  200095  200101  1.0     .0      .0      1        MR MAST
CBAR    4500072 450007  200101  200106  1.0     .0      .0      1        MR MAST
CBAR    4500073 450007  200106  200114  1.0     .0      .0      1        MR MAST
CBAR    4500074 450007  200114  200121  1.0     .0      .0      1        MR MAST
CBAR    4500075 450007  200121  200129  1.0     .0      .0      1        MR MAST
CBAR    4500076 450007  200129  200137  1.0     .0      .0      1        MR MAST
CBAR    4500077 450007  200137  200145  1.0     .0      .0      1        MR MAST
CBAR    4500078 450007  200145  200153  1.0     .0      .0      1        MR MAST
CBAR    4500079 450007  200153  200155  1.0     .0      .0      1        MR MAST
CELAS2  189831  28125.  189073  1       18983   1                       FWD R X 
CELAS2  189832  28125.  189073  2       18983   2                       FWD R Y 
CELAS2  189833  4500.   189073  3       18983   3                       FWD R Z 
CELAS2  189871  28125.  189077  1       18987   1                       FWD L X 
CELAS2  189872  28125.  189077  2       18987   2                       FWD L Y 
CELAS2  189873  4500.   189077  3       18987   3                       FWD L Z 
CELAS2  211831  28125.  211073  1       21183   1                       AFT R X 
CELAS2  211832  28125.  211073  2       21183   2                       AFT R Y 
CELAS2  211833  4500.   211073  3       21183   3                       AFT R Z 
CELAS2  211871  28125.  211077  1       21187   1                       AFT L X 
CELAS2  211872  28125.  211077  2       21187   2                       AFT L Y 
CELAS2  211873  4500.   211077  3       21187   3                       AFT L Z 
CELAS2  214853  20000.  214075  3       21485   3                       AFT C Z 
CONM2   209     209     0       7297.399                                 BASICWT
+BASICWT4.7561+6        5.3412+7                5.3697+7                        
CONM2   109765  19765           12.896                                          
CONM2   290070  200070          34.465                                          
CONM2   290078  200078          22.740                                          
CONM2   290079  200079          51.048                                          
CONM2   290086  200086          60.052                                          
CONM2   290087  200087          60.052                                          
CONM2   290095  200095          64.933                                          
CONM2   290096  200096          64.933                                          
CONM2   290101  200101          57.277                                          
CONM2   290106  200106          47.013                                          
CONM2   290114  200114          66.626                                          
CONM2   290121  200121          54.350                                          
CONM2   290129  200129          13.810                                          
CONM2   290137  200137          9.253                                           
CONM2   290145  200145          12.065                                          
CONM2   290153  200153          5.852                                           
CONM2   290155  200155          6.124                                           
CONM2   390153  200153          458.000                                 MR BLADE
CONM2   490153  200153          489.500                                 MR HUB  
CONM2   9200070 200070          26.100                                  BASIC   
CRIGD1  200078  200078  189073  189077  211073                                  
CRIGD1  353252  200078  200079                                                  
CRIGD1  353253  200079  200087                                                  
CRIGD1  353254  200087  200096                                                  
CRIGD2  2091    209     19765   1236                                            
CRIGD2  2092    209     18983   12356   18987   12356                           
CRIGD2  2093    209     21183   12356   21187   12356                           
CRIGD2  2094    209     21485   234                                             
CRIGD2  353255  200096  200101  123                                             
CRIGD3  200078  200078  456     189073  1       189077  2               +CRG31  
+CRG31          211073  3                                               +CRG32  
+CRG32  MSET    211077  123456  214075  123456                                  
CRIGDR  357000  19765   200078  3                                               
EIGR    1000    GIV                             15                      +EIGR   
+EIGR   MAX                                                                     
GRID    209     0       191.7117.001757 56.030010                               
GRID    18983   0       189.94  12.375  77.57   0       4                       
GRID    18987   0       189.94  -12.375 77.57   0       4                       
GRID    19765   0       196.90  .0      64.63   0       45                      
GRID    21183   0       211.72  12.375  77.57   0       4                       
GRID    21187   0       211.72  -12.375 77.57   0       4                       
GRID    21485   0       214.50  .0      77.57   0       156                     
GRID    189073  0       189.94  12.375  77.57   0       0                       
GRID    189077  0       189.94  -12.375 77.57   0       0                       
GRID    200070  0       200.00  .0      70.00   0       0                       
GRID    200078  0       200.00  .0      77.57   0       0                       
GRID    200079  0       200.00  .0      79.05   0       0                       
GRID    200086  0       200.00  .0      86.25   0       0                       
GRID    200087  0       200.00  .0      86.25   0       0                       
GRID    200095  0       200.00  .0      95.00   0       0                       
GRID    200096  0       200.00  .0      95.00   0       0                       
GRID    200101  0       200.00  .0      100.675 0       0                       
GRID    200106  0       200.00  .0      106.00  0       0                       
GRID    200114  0       200.00  .0      114.00  0       0                       
GRID    200121  0       200.00  .0      121.00  0       0                       
$ ... 8 like lines cut
MAT1    1       1.0+6   1.0+6                                                   
MAT1    10      1.0     1.0                                                     
MAT1    57      3.2+6   .8+6    .32                                             
MAT1    76      3.2+6   .8+6    .32                                             
MAT1    2014    10.5+6  4.0+6                                                   
MAT1    2024    10.5+6  4.0+6                                                   
MAT1    4130    29.0+6  11.0+6                                                  
MAT1    4340    29.0+6  11.0+6                                                  
MAT1    4620    29.0+6  11.0+6                                                  
MAT1    7075    10.3+6  3.9+6                                                   
MAT1    9046    17.5+6  6.5+6                                                   
OMIT    200070  456                                                             
OMIT    200078  456                                                             
OMIT    200086  456                                                             
OMIT    200095  456                                                             
OMIT    200101  456                                                             
OMIT    200106  456                                                             
OMIT    200114  456                                                             
OMIT    200121  456                                                             
OMIT    200129  456                                                             
OMIT    200137  456                                                             
OMIT    200145  456                                                             
OMIT    200153  456                                                             
OMIT    200155  456                                                             
PARAM   GRDEQ   0                                                               
PARAM   GRDPNT  0                                                               
PARAM   OPT     -1                                                              
PARAM   WTMASS  .00259                                                          
PBAR    353025  1       100.    1950.   1950.   1480.                           
PBAR    450007  1       100.    120.07  120.07  91.088                          
SUPORT  209     123456                                                          
ENDDATA                                                                         
