ID    D06011A,NASTRAN                                                           
APP   DISPLACEMENT                                                              
TIME  100                                                                       
SOL   6,1                                                                       
CEND                                                                            
TITLE    = PIECEWISE LINEAR ANALYSIS OF A CRACKED PANEL                         
SUBTITLE = NASTRAN DEMONSTRATION PROBLEM NO. D06-01-1A                          
MAXLINES = 50000                                                                
$   ECHO = NONE                                                                 
     SPC = 10                                                                   
    LOAD = 600                                                                  
    PLCOEFFICIENT = 23                                                          
OUTPUT                                                                          
$                                                                               
SET 1 = 1 THRU 26,42,43,50,77,107,137,167,195,222,249,272,293,341,347,          
        348                                                                     
SET 2 = 1 THRU 36, 196, 200                                                     
$                                                                               
      DISPLACEMENT = 2                                                          
      OLOAD    = ALL                                                            
      SPCFORCE = ALL                                                            
      STRESS   = 1                                                              
BEGIN BULK                                                                      
CTRMEM  1       1       7       8       9                                       
CTRMEM  2       1       8       12      9                                       
CTRMEM  3       1       9       10      12                                      
CTRMEM  4       1       10      11      12                                      
CTRMEM  5       1       12      13      11                                      
CTRMEM  6       1       13      14      11                                      
CTRMEM  7       1       15      16      1                                       
CTRMEM  8       1       1       2       16                                      
CTRMEM  9       1       16      17      2                                       
CTRMEM  10      1       2       3       17                                      
CTRMEM  11      1       17      18      3                                       
CTRMEM  12      1       3       4       18                                      
CTRMEM  13      1       18      19      4                                       
CTRMEM  14      1       19      20      4                                       
CTRMEM  15      1       4       5       20                                      
CTRMEM  16      1       5       6       20                                      
CTRMEM  17      1       20      21      6                                       
CTRMEM  18      1       21      22      6                                       
CTRMEM  19      1       6       7       22                                      
CTRMEM  20      1       7       22      9       90.0                            
$ ... 328 like lines cut
FORCE   600     196             100.    0.0     .375                            
FORCE   600     197             100.    0.0     .75                             
FORCE   600     198             100.    0.0     .75                             
FORCE   600     199             100.    0.0     .75                             
FORCE   600     200             100.    0.0     .375                            
GRDSET                                                  3456                    
GRID    1               0.0     0.0                                             
GRID    2               .2      .0                                              
GRID    3               .4      .0                                              
GRID    4               .6      .0                                              
GRID    5               .7      .0                                              
GRID    6               .8      .0                                              
GRID    7               .9      .0                                              
GRID    8               .95     .0                                              
GRID    9               .95     .05                                             
GRID    10              1.0     .05                                             
GRID    11              1.05    .05                                             
GRID    12              1.0     .0                                              
GRID    13              1.05    .0                                              
GRID    14              1.1     .0                                              
GRID    15              .0      .1                                              
GRID    16              .1      .1                                              
GRID    17              .3      .1                                              
GRID    18              .5      .1                                              
GRID    19              .6      .1                                              
GRID    20              .7      .1                                              
$ ... 180 like lines cut
LOAD    2300    23.     1.0     600                                             
MAT1    60      10.8+6          .3333                                   +M1     
+M1     11.5+3  11.5+3                                                          
MATS1   60      101                                                             
PLFACT  23      23.     25.     28.     31.     34.     37.     40.     +A-PLF  
+A-PLF  44.     48.     52.     56.     60.     65.     70.     75.     +B-PLF  
+B-PLF  80.     85.     90.     95.     100.    105.    110.    115.    +C-PLF  
+C-PLF  120.    125.    130.                                                    
PTRMEM  1       60      1.0                                                     
SPC1    10      1       1       15      27      40      56      72      + SPC1-1
+ SPC1-188      104     118     133     147     158     170     178     + SPC2-1
+ SPC2-1184     190     196                                                     
SPC1    10      2       12      13      14      26      39      55      + SPC1-2
+ SPC1-271      87      103     117     132     146     157     169             
TABLES1 101                                                             *TAB100 
*TAB100   -8.4495168E-02  -3.4765000E 04  -8.2418240E-02  -3.453E 04    *TAB101 
*TAB101   -8.0372998E-02  -3.4295000E 04  -7.8359272E-02  -3.406E 04    *TAB102 
*TAB102   -7.6376893E-02  -3.3825000E 04  -7.4425689E-02  -3.359E 04    *TAB103 
*TAB103   -7.2505489E-02  -3.3355000E 04  -7.0616119E-02  -3.312E 04    *TAB104 
*TAB104   -6.8757406E-02  -3.2885000E 04  -6.6929175E-02  -3.265E 04    *TAB105 
*TAB105   -6.5131251E-02  -3.2415000E 04  -6.3363456E-02  -3.218E 04    *TAB106 
*TAB106   -6.1625615E-02  -3.1945000E 04  -5.9917548E-02  -3.171E 04    *TAB107 
*TAB107   -5.8239075E-02  -3.1475000E 04  -5.65918E-02    -3.124E 04    *TAB108 
*TAB108   -5.497193E-02   -3.1005000E 04  -5.3379419E-02  -3.077E 04    *TAB109 
*TAB109   -5.1817513E-02  -3.0535000E 04  -5.0284289E-02  -3.030E 04    *TAB110 
*TAB110   -4.8779562E-02  -3.0065000E 04  -4.7303146E-02  -2.983E 04    *TAB111 
*TAB111   -4.5854852E-02  -2.9595000E 04  -4.4434491E-02  -2.936E 04    *TAB112 
*TAB112   -4.3041873E-02  -2.9125000E 04  -4.1676807E-02  -2.889E 04    *TAB113 
*TAB113   -4.0339100E-02  -2.8655000E 04  -3.9028558E-02  -2.842E 04    *TAB114 
*TAB114   -3.7744987E-02  -2.8185000E 04  -3.6488188E-02  -2.795E 04    *TAB115 
*TAB115   -3.5257966E-02  -2.7715000E 04  -3.4054121E-02  -2.748E 04    *TAB116 
*TAB116   -3.2876451E-02  -2.7245000E 04  -3.1724757E-02  -2.701E 04    *TAB117 
*TAB117   -3.0598832E-02  -2.6775000E 04  -2.9498474E-02  -2.654E 04    *TAB118 
*TAB118   -2.8423475E-02  -2.6305000E 04  -2.7373628E-02  -2.607E 04    *TAB119 
*TAB119   -2.6348724E-02  -2.5835000E 04  -2.5348551E-02  -2.560E 04    *TAB120 
$ ... 30 like lines cut
*TAB150    0.              0.              1.0648148E-03   1.150E 04    *TAB151 
*TAB151    1.0873249E-03   1.1735000E 04   1.1126483E-03   1.197E 04    *TAB152 
*TAB152    1.142932E-03    1.2205000E 04   1.1766480E-03   1.244E 04    *TAB153 
*TAB153    1.2171483E-03   1.2675000E 04   1.2643326E-03   1.291E 04    *TAB154 
*TAB154    1.3188712E-03   1.3145000E 04   1.3813823E-03   1.338E 04    *TAB155 
*TAB155    1.4524432E-03   1.3615000E 04   1.5325975E-03   1.385E 04    *TAB156 
*TAB156    1.6223604E-03   1.4085000E 04   1.7222231E-03   1.432E 04    *TAB157 
*TAB157    1.8326559E-03   1.4555000E 04   1.9541106E-03   1.479E 04    *TAB158 
*TAB158    2.087227E-03    1.5025000E 04   2.2318132E-03   1.526E 04    *TAB159 
*TAB159    2.3888897E-03   1.5495000E 04   2.5586479E-03   1.573E 04    *TAB160 
*TAB160    2.7414724E-03   1.5965000E 04   2.9377381E-03   1.620E 04    *TAB161 
*TAB161    3.1478101E-03   1.6435000E 04   3.372451E-03    1.667E 04    *TAB162 
*TAB162    3.6107919E-03   1.6905000E 04   3.8643916E-03   1.714E 04    *TAB163 
*TAB163    4.1331784E-03   1.7375000E 04   4.4174798E-03   1.761E 04    *TAB164 
*TAB164    4.7176173E-03   1.7845000E 04   5.0339064E-03   1.808E 04    *TAB165 
*TAB165    5.3666571E-03   1.8315000E 04   5.7161741E-03   1.855E 04    *TAB166 
*TAB166    6.0827573E-03   1.8785000E 04   6.4667017E-03   1.902E 04    *TAB167 
*TAB167    6.8682978E-03   1.9255000E 04   7.2878319E-03   1.949E 04    *TAB168 
*TAB168    7.7255861E-03   1.9725000E 04   8.1818386E-03   1.996E 04    *TAB169 
*TAB169    8.6568637E-03   2.0195000E 04   9.1509324E-03   2.043E 04    *TAB170 
*TAB170    9.6643119E-03   2.0665000E 04   1.0197266E-02   2.090E 04    *TAB171 
$ ... 29 like lines cut
*TAB200    8.4495168E-02   3.4765000E 04   ENDT                                 
ENDDATA                                                                         
