ID    D08014A,NASTRAN                                                           
APP   DISPLACEMENT                                                              
SOL   8,1                                                                       
DIAG  14                                                                        
TIME  30                                                                        
ALTER 1 $                                                                       
PARAM   //C,N,NOP/V,N,TRUE=-1 $                                                 
INPUT,  ,,,,/G1,G2,,G4,/C,N,3/C,N,1 $                                           
EQUIV   G1,GEOM1/TRUE / G2,GEOM2/TRUE / G4,GEOM4/TRUE $                         
ENDALTER $                                                                      
CEND                                                                            
TITLE    = FREQUENCY RESPONSE OF A 20X20 PLATE                                  
SUBTITLE = NASTRAN DEMONSTRATION PROBLEM NO. D08-01-4A                          
     SPC = 20020                                                                
   DLOAD = 8                                                                    
FREQUENCY= 8                                                                    
OUTPUT                                                                          
   SET 1 = 1,7,13,21,  169,189,  295,315,  421,427,433,441                      
   DISPLACEMENT(SORT2,PHASE) = 1                                                
   SPCFORCE(SORT2,PHASE) = 1                                                    
BEGIN BULK                                                                      
DAREA  *37              1               3               2.5000000E-01           
DAREA  *37              2               3               4.9845867E-01           
DAREA  *37              3               3               4.9384417E-01           
DAREA  *37              4               3               4.8618496E-01           
DAREA  *37              5               3               4.7552826E-01           
DAREA  *37              6               3               4.6193977E-01           
DAREA  *37              7               3               4.4550326E-01           
DAREA  *37              8               3               4.2632008E-01           
DAREA  *37              9               3               4.0450850E-01           
DAREA  *37              10              3               3.8020299E-01           
DAREA  *37              11              3               3.5355339E-01           
DAREA  *37              12              3               3.2472403E-01           
DAREA  *37              13              3               2.9389263E-01           
DAREA  *37              14              3               2.6124929E-01           
DAREA  *37              15              3               2.2699525E-01           
DAREA  *37              16              3               1.9134172E-01           
DAREA  *37              17              3               1.5450850E-01           
DAREA  *37              18              3               1.1672269E-01           
DAREA  *37              19              3               7.8217242E-02           
DAREA  *37              20              3               3.9229557E-02           
$ ... 380 like lines cut
FREQ    8       .0      8.0     9.0     10.0    11.0                            
MAT1    8       3.0+7           .300                                            
PQUAD1  101                     8       .6666667                13.55715        
RLOAD1  8       37                      1                                       
TABLED1 1                                                               +T1     
+T1     .0      2.5     100.0   10.0    ENDT                                    
ENDDATA                                                                         
      20      20 5.0E-01 5.0E-01     126 0.0     0.0                            
       4       5      35      34       0       0                                
