ID    D08013A,NASTRAN                                                           
APP   DISPLACEMENT                                                              
SOL   8,1                                                                       
DIAG  14                                                                        
TIME  12                                                                        
ALTER 1 $                                                                       
PARAM   //C,N,NOP/V,N,TRUE=-1 $                                                 
INPUT,  ,,,,/G1,G2,,G4,/C,N,3/C,N,1 $                                           
EQUIV   G1,GEOM1/TRUE / G2,GEOM2/TRUE / G4,GEOM4/TRUE $                         
ENDALTER $                                                                      
CEND                                                                            
TITLE    = FREQUENCY RESPONSE OF A 10X10 PLATE                                  
SUBTITLE = NASTRAN DEMONSTRATION PROBLEM NO. D08-01-3A                          
     SPC = 10010                                                                
   DLOAD = 8                                                                    
FREQUENCY= 8                                                                    
OUTPUT                                                                          
   SET 1 = 1,4,7,11  45,55,  78,88,  111,114,117,121                            
   DISPLACEMENT(SORT2,PHASE) = 1                                                
   SPCFORCE(SORT2,PHASE) = 1                                                    
BEGIN BULK                                                                      
DAREA  *37              1               3               2.5000000E-01           
DAREA  *37              2               3               4.9384417E-01           
DAREA  *37              3               3               4.7552826E-01           
DAREA  *37              4               3               4.4550326E-01           
DAREA  *37              5               3               4.0450850E-01           
DAREA  *37              6               3               3.5355339E-01           
DAREA  *37              7               3               2.9389263E-01           
DAREA  *37              8               3               2.2699525E-01           
DAREA  *37              9               3               1.5450850E-01           
DAREA  *37              10              3               7.8217242E-02           
DAREA  *37              12              3               4.9384417E-01           
DAREA  *37              13              3               9.7552826E-01           
DAREA  *37              14              3               9.3934743E-01           
DAREA  *37              15              3               8.8003676E-01           
DAREA  *37              16              3               7.9905665E-01           
DAREA  *37              17              3               6.9840112E-01           
DAREA  *37              18              3               5.8054864E-01           
DAREA  *37              19              3               4.4840113E-01           
DAREA  *37              20              3               3.0521249E-01           
DAREA  *37              21              3               1.5450851E-01           
$ ... 80 like lines cut
FREQ    8       .0      8.0     9.0     10.0    11.0                            
MAT1    8       3.0+7           .300                                            
PQUAD1  101                     8       .6666667                13.55715        
RLOAD1  8       37                      1                                       
TABLED1 1                                                               +T1     
+T1     .0      10.0    100.0   40.0    ENDT                                    
ENDDATA                                                                         
      10      10 1.0E+00 1.0E+00     126 0.0     0.0                            
       4       5      35      34       0       0                                
