ID    D08012A,NASTRAN                                                           
APP   DISPLACEMENT                                                              
SOL   8,1                                                                       
TIME  30                                                                        
CEND                                                                            
TITLE    = FREQUENCY RESPONSE OF A 20X20 PLATE                                  
SUBTITLE = NASTRAN DEMONSTRATION PROBLEM NO. D08-01-2A                          
     SPC = 37                                                                   
   DLOAD =  8                                                                   
FREQUENCY= 8                                                                    
OUTPUT                                                                          
   SET 1 = 1,7,13,21,  169,189,  295,315,  421,427,433,441                      
   DISPLACEMENT(SORT2,PHASE) = 1                                                
   SPCFORCE(SORT2,PHASE) = 1                                                    
BEGIN BULK                                                                      
CNGRNT  1       2       THRU    419                                             
CQUAD1  1       23      1       2       23      22      .00                     
CQUAD1  2       23      2       3       24      23      .00                     
CQUAD1  3       23      3       4       25      24      .00                     
CQUAD1  4       23      4       5       26      25      .00                     
CQUAD1  5       23      5       6       27      26      .00                     
CQUAD1  6       23      6       7       28      27      .00                     
CQUAD1  7       23      7       8       29      28      .00                     
CQUAD1  8       23      8       9       30      29      .00                     
CQUAD1  9       23      9       10      31      30      .00                     
CQUAD1  10      23      10      11      32      31      .00                     
CQUAD1  11      23      11      12      33      32      .00                     
CQUAD1  12      23      12      13      34      33      .00                     
CQUAD1  13      23      13      14      35      34      .00                     
CQUAD1  14      23      14      15      36      35      .00                     
CQUAD1  15      23      15      16      37      36      .00                     
CQUAD1  16      23      16      17      38      37      .00                     
CQUAD1  17      23      17      18      39      38      .00                     
CQUAD1  18      23      18      19      40      39      .00                     
CQUAD1  19      23      19      20      41      40      .00                     
CQUAD1  20      23      20      21      42      41      .00                     
$ ... 380 like lines cut
DAREA  *37              1               3               2.5000000E-01           
DAREA  *37              2               3               4.9845867E-01           
DAREA  *37              3               3               4.9384417E-01           
DAREA  *37              4               3               4.8618496E-01           
DAREA  *37              5               3               4.7552826E-01           
DAREA  *37              6               3               4.6193977E-01           
DAREA  *37              7               3               4.4550326E-01           
DAREA  *37              8               3               4.2632008E-01           
DAREA  *37              9               3               4.0450850E-01           
DAREA  *37              10              3               3.8020299E-01           
DAREA  *37              11              3               3.5355339E-01           
DAREA  *37              12              3               3.2472403E-01           
DAREA  *37              13              3               2.9389263E-01           
DAREA  *37              14              3               2.6124929E-01           
DAREA  *37              15              3               2.2699525E-01           
DAREA  *37              16              3               1.9134172E-01           
DAREA  *37              17              3               1.5450850E-01           
DAREA  *37              18              3               1.1672269E-01           
DAREA  *37              19              3               7.8217242E-02           
DAREA  *37              20              3               3.9229557E-02           
$ ... 380 like lines cut
FREQ    8       .0      8.0     9.0     10.0    11.0                            
GRDSET                                                  126                     
GRID    1               .0      .0      .0                                      
GRID    2               .5      .0      .0                                      
GRID    3               1.0     .0      .0                                      
GRID    4               1.5     .0      .0                                      
GRID    5               2.0     .0      .0                                      
GRID    6               2.5     .0      .0                                      
GRID    7               3.0     .0      .0                                      
GRID    8               3.5     .0      .0                                      
GRID    9               4.0     .0      .0                                      
GRID    10              4.5     .0      .0                                      
GRID    11              5.0     .0      .0                                      
GRID    12              5.5     .0      .0                                      
GRID    13              6.0     .0      .0                                      
GRID    14              6.5     .0      .0                                      
GRID    15              7.0     .0      .0                                      
GRID    16              7.5     .0      .0                                      
GRID    17              8.0     .0      .0                                      
GRID    18              8.5     .0      .0                                      
GRID    19              9.0     .0      .0                                      
GRID    20              9.5     .0      .0                                      
$ ... 421 like lines cut
MAT1    8       3.0+7           .300                                            
PQUAD1  23                      8       .6666667                13.55715        
RLOAD1  8       37                      1                                       
SPC1    37      4       1       2       3       4       5       6       +41001H 
+41001H 7       8       9       10      11      12      13      14      +41002H 
+41002H 15      16      17      18      19      20      21                      
SPC1    37      5       1       22      43      64      85      106     +31001H 
+31001H 127     148     169     190     211     232     253     274     +31002H 
+31002H 295     316     337     358     379     400     421                     
SPC1    37      34      21      42      63      84      105     126     +11001H 
+11001H 147     168     189     210     231     252     273     294     +11002H 
+11002H 315     336     357     378     399     420     441                     
SPC1    37      35      421     422     423     424     425     426     +21001H 
+21001H 427     428     429     430     431     432     433     434     +21002H 
+21002H 435     436     437     438     439     440     441                     
TABLED1 1                                                               +T1     
+T1     .0      2.5     100.0   10.0    ENDT                                    
ENDDATA                                                                         
