ID    D08011A,NASTRAN                                                           
APP   DISPLACEMENT                                                              
SOL   8,1                                                                       
TIME  12                                                                        
CEND                                                                            
TITLE    = FREQUENCY RESPONSE OF A 10X10 PLATE                                  
SUBTITLE = NASTRAN DEMONSTRATION PROBLEM NO. D08-01-1A                          
     SPC = 37                                                                   
   DLOAD = 8                                                                    
FREQUENCY= 8                                                                    
OUTPUT                                                                          
   SET 1 = 1,4,7,11  45,55,  78,88,  111,114,117,121                            
   DISPLACEMENT(SORT2,PHASE) = 1                                                
   SPCFORCE(SORT2,PHASE) = 1                                                    
BEGIN BULK                                                                      
CNGRNT  1       2       THRU    109                                             
CQUAD1  1       23      1       2       13      12      .00                     
CQUAD1  2       23      2       3       14      13      .00                     
CQUAD1  3       23      3       4       15      14      .00                     
CQUAD1  4       23      4       5       16      15      .00                     
CQUAD1  5       23      5       6       17      16      .00                     
CQUAD1  6       23      6       7       18      17      .00                     
CQUAD1  7       23      7       8       19      18      .00                     
CQUAD1  8       23      8       9       20      19      .00                     
CQUAD1  9       23      9       10      21      20      .00                     
CQUAD1  10      23      10      11      22      21      .00                     
CQUAD1  12      23      12      13      24      23      .00                     
CQUAD1  13      23      13      14      25      24      .00                     
CQUAD1  14      23      14      15      26      25      .00                     
CQUAD1  15      23      15      16      27      26      .00                     
CQUAD1  16      23      16      17      28      27      .00                     
CQUAD1  17      23      17      18      29      28      .00                     
CQUAD1  18      23      18      19      30      29      .00                     
CQUAD1  19      23      19      20      31      30      .00                     
CQUAD1  20      23      20      21      32      31      .00                     
CQUAD1  21      23      21      22      33      32      .00                     
$ ... 80 like lines cut
DAREA  *37              1               3               2.5000000E-01           
DAREA  *37              2               3               4.9384417E-01           
DAREA  *37              3               3               4.7552826E-01           
DAREA  *37              4               3               4.4550326E-01           
DAREA  *37              5               3               4.0450850E-01           
DAREA  *37              6               3               3.5355339E-01           
DAREA  *37              7               3               2.9389263E-01           
DAREA  *37              8               3               2.2699525E-01           
DAREA  *37              9               3               1.5450850E-01           
DAREA  *37              10              3               7.8217242E-02           
DAREA  *37              12              3               4.9384417E-01           
DAREA  *37              13              3               9.7552826E-01           
DAREA  *37              14              3               9.3934743E-01           
DAREA  *37              15              3               8.8003676E-01           
DAREA  *37              16              3               7.9905665E-01           
DAREA  *37              17              3               6.9840112E-01           
DAREA  *37              18              3               5.8054864E-01           
DAREA  *37              19              3               4.4840113E-01           
DAREA  *37              20              3               3.0521249E-01           
DAREA  *37              21              3               1.5450851E-01           
$ ... 80 like lines cut
FREQ    8       .0      8.0     9.0     10.0    11.0                            
GRDSET                                                  126                     
GRID    1               .0      .0      .0                                      
GRID    2               1.0     .0      .0                                      
GRID    3               2.0     .0      .0                                      
GRID    4               3.0     .0      .0                                      
GRID    5               4.0     .0      .0                                      
GRID    6               5.0     .0      .0                                      
GRID    7               6.0     .0      .0                                      
GRID    8               7.0     .0      .0                                      
GRID    9               8.0     .0      .0                                      
GRID    10              9.0     .0      .0                                      
GRID    11              10.0    .0      .0                                      
GRID    12              .0      1.0     .0                                      
GRID    13              1.0     1.0     .0                                      
GRID    14              2.0     1.0     .0                                      
GRID    15              3.0     1.0     .0                                      
GRID    16              4.0     1.0     .0                                      
GRID    17              5.0     1.0     .0                                      
GRID    18              6.0     1.0     .0                                      
GRID    19              7.0     1.0     .0                                      
GRID    20              8.0     1.0     .0                                      
$ ... 101 like lines cut
MAT1    8       3.0+7           .300                                            
PQUAD1  23                      8       .6666667                13.55715        
RLOAD1  8       37                      1                                       
SPC1    37      4       1       2       3       4       5       6       +41001H 
+41001H 7       8       9       10      11                                      
SPC1    37      5       1       12      23      34      45      56      +31001H 
+31001H 67      78      89      100     111                                     
SPC1    37      34      11      22      33      44      55      66      +11001H 
+11001H 77      88      99      110     121                                     
SPC1    37      35      111     112     113     114     115     116     +21001H 
+21001H 117     118     119     120     121                                     
TABLED1 1                                                               +T1     
+T1     .0      10.0    100.0   40.0    ENDT                                    
ENDDATA                                                                         
