NASTRAN FILES=PLT2                                                              
ID    D09031A,NASTRAN                                                           
APP   DISPLACEMENT                                                              
SOL   9,3                                                                       
TIME  100                                                                       
CEND                                                                            
TITLE    = TRANSIENT ANALYSIS OF A FLUID-FILLED ELASTIC CYLINDER.               
SUBTITLE = NASTRAN DEMONSTRATION PROBLEM NO. D09-03-1A                          
   LABEL = THIRD HARMONIC ANALYSIS.                                             
   TSTEP = 10                                                                   
   DLOAD = 10                                                                   
     SPC = 3                                                                    
   AXISYMMETRIC = FLUID                                                         
   OUTPUT                                                                       
   HARMONICS = 3                                                                
     SET 100 = 10,11, 26,27, 42,43, 58,59, 74,75, 81 THRU 96,                   
               106,107, 122,123, 138,139, 154,155, 170,171                      
   DISPLACEMENT = 100                                                           
PLOTID   = NASTRAN DEMONSTRATION PROBLEM NO. D09-03-1A                          
OUTPUT(XYPLOT)                                                                  
 PLOTTER = NASTPLT                                                              
  XTGRID = YES                                                                  
  YTGRID = YES                                                                  
  XBGRID = YES                                                                  
  YBGRID = YES                                                                  
  XDIVISIONS = 10                                                               
  CURVELINESYMBOL = 1                                                           
  XTITLE  =                                     TIME (SECONDS)                  
  YTTITLE =  R DISP      -INCHES-                                               
  YBTITLE =  R DISP      -INCHES-                                               
$                                                                               
TCURVE = PLOTTED  *TOP GRID 91(Z=5,A=0), *BOTTOM GRID 110(Z=5,A=18)             
  XYPLOT DISP   /91(T1,), 110(,T1)                                              
TCURVE = PLOTTED GRID(A=0,18) *TOP - 59,62(Z=7) *BOTTOM 123,126(Z=3)            
  XYPLOT DISP   /59(T1,), 62(T1,), 123(,T1),126(,T1)                            
$                                                                               
  YTTITLE =  PRESSURE     *LB/INCH*                                             
  YBTITLE =  PRESSURE     *LB/INCH*                                             
TCURVE = PLOTTED PRESPT (Z=5,A=0)  *TOP 5301(R=3)  *BOTTOM 5801(R=8)            
  XYPLOT DISP   / 5301(T1,), 5801(,T1)                                          
TCURVE = PLOTTED PRESPT (R=5,A=0,Z=3,5,7)*TOP 3501,5501  *BOT 7501,5501         
  XYPLOT DISP   / 5501(T1,T1), 3501(T1,), 7501(,T1)                             
  YTITLE = R DISP       -INCH-                                                  
TCURVE = PLOTTED  DISP AT MIDPOINT(Z=5.), ANGLE = 0.0 AND 18.0 DEGREES.         
  XYPLOT DISP   /  91(T1), 110(T1)                                              
   YTITLE = HARMONIC PRESSURE                                                   
TCURVE = PLOTTED RINGFL (R=5,Z=5)  * 85                                         
     XYPLOT DISP / 4000085 (T1)                                                 
$                                                                               
BEGIN BULK                                                                      
AXIF    1       .0      1.8-2   .00     NO                              +AXIF   
+AXIF   3                                                                       
BDYLIST         10      26      42      58      74      90      106     +BDY-1  
+BDY-1  122     138     154     170                                             
CFLUID2 1001    17      1                                                       
CFLUID2 2001    33      17                                                      
CFLUID2 3001    49      33                                                      
CFLUID2 4001    65      49                                                      
CFLUID2 5001    81      65                                                      
CFLUID2 6001    97      81                                                      
CFLUID2 7001    113     97                                                      
CFLUID2 8001    129     113                                                     
CFLUID2 9001    145     129                                                     
CFLUID2 10001   161     145                                                     
CFLUID4 1002    18      2       1       17                                      
CFLUID4 1003    19      3       2       18                                      
CFLUID4 1004    20      4       3       19                                      
CFLUID4 1005    21      5       4       20                                      
CFLUID4 1006    22      6       5       21                                      
CFLUID4 1007    23      7       6       22                                      
CFLUID4 1008    24      8       7       23                                      
CFLUID4 1009    25      9       8       24                                      
CFLUID4 1010    26      10      9       25                                      
CFLUID4 2002    34      18      17      33                                      
$ ... 80 like lines cut
CORD2C  1               .0      .0      .0      .0      .0      1.0     +CORD2C 
+CORD2C 1.0     .0      .0                                                      
CQUAD1  1011    1       27      28      12      11                              
CQUAD1  1012    1       28      29      13      12                              
CQUAD1  1013    1       29      30      14      13                              
CQUAD1  1014    1       30      31      15      14                              
CQUAD1  1015    1       31      32      16      15                              
CQUAD1  2011    1       43      44      28      27                              
CQUAD1  2012    1       44      45      29      28                              
CQUAD1  2013    1       45      46      30      29                              
CQUAD1  2014    1       46      47      31      30                              
CQUAD1  2015    1       47      48      32      31                              
CQUAD1  3011    1       59      60      44      43                              
CQUAD1  3012    1       60      61      45      44                              
CQUAD1  3013    1       61      62      46      45                              
CQUAD1  3014    1       62      63      47      46                              
CQUAD1  3015    1       63      64      48      47                              
CQUAD1  4011    1       75      76      60      59                              
CQUAD1  4012    1       76      77      61      60                              
CQUAD1  4013    1       77      78      62      61                              
CQUAD1  4014    1       78      79      63      62                              
CQUAD1  4015    1       79      80      64      63                              
$ ... 30 like lines cut
DAREA   1       27      1       .32345  28      1       .61525                  
DAREA   1       29      1       .52336  30      1       .38024                  
DAREA   1       31      1       .19991  32      1       3.23-10                 
DAREA   1       43      1       .61525  44      1       1.17027                 
DAREA   1       45      1       .99549  46      1       .72327                  
DAREA   1       47      1       .38024  48      1       6.14-10                 
DAREA   1       59      1       .84681  60      1       1.61074                 
DAREA   1       61      1       1.37017 62      1       .99549                  
DAREA   1       63      1       .52336  64      1       8.44-10                 
DAREA   1       75      1       .99549  76      1       1.89353                 
DAREA   1       77      1       1.61074 78      1       1.17027                 
DAREA   1       79      1       .61525  80      1       9.93-10                 
DAREA   1       91      1       1.04672 92      1       1.99098                 
DAREA   1       93      1       1.69363 94      1       1.23049                 
DAREA   1       95      1       .64691  96      1       1.044-9                 
DAREA   1       107     1       .99549  108     1       1.89353                 
DAREA   1       109     1       1.61074 110     1       1.17027                 
DAREA   1       111     1       .61525  112     1       9.93-10                 
DAREA   1       123     1       .84681  124     1       1.61074                 
DAREA   1       125     1       1.37017 126     1       .99549                  
$ ... 7 like lines cut
FLSYM   12      S       A                                                       
FSLIST          AXIS    1       2       3       4       5       6       +FSL-1  
+FSL-1  7       8       9       10                                              
FSLIST          170     169     168     167     166     165     164     +FSL-2  
+FSL-2  163     162     161     AXIS                                            
GRIDB   11                      0.0             1       4       10              
GRIDB   12                      6.00000         1       4       10              
GRIDB   13                      12.0000         1       4       10              
GRIDB   14                      18.0000         1       4       10              
GRIDB   15                      24.0000         1       4       10              
GRIDB   16                      30.0000         1       4       10              
GRIDB   27                      0.0             1       4       26              
GRIDB   28                      6.00000         1       4       26              
GRIDB   29                      12.0000         1       4       26              
GRIDB   30                      18.0000         1       4       26              
GRIDB   31                      24.0000         1       4       26              
GRIDB   32                      30.0000         1       4       26              
GRIDB   43                      0.0             1       4       42              
GRIDB   44                      6.00000         1       4       42              
GRIDB   45                      12.0000         1       4       42              
GRIDB   46                      18.0000         1       4       42              
GRIDB   47                      24.0000         1       4       42              
GRIDB   48                      30.0000         1       4       42              
GRIDB   59                      0.0             1       4       58              
GRIDB   60                      6.00000         1       4       58              
$ ... 46 like lines cut
MAT1    2       1.6+5   6.0+4           6.0-2                                   
PQUAD1  1       2       .01     2       8.3333-8                        +PQUAD1 
+PQUAD1 .0      .005                                                            
PRESPT  21              1501    +0.0                                            
PRESPT  53              3501    +0.0                                            
PRESPT  81              5101    +0.0                                            
PRESPT  82              5201    +0.0                                            
PRESPT  83              5301    +0.0                                            
PRESPT  84              5401    +0.0                                            
PRESPT  85              5501    +0.0    5502    30.0    5503    60.0            
PRESPT  86              5601    +0.0                                            
PRESPT  87              5701    +0.0                                            
PRESPT  88              5801    +0.0                                            
PRESPT  89              5901    +0.0                                            
PRESPT  117             7501    +0.0                                            
PRESPT  149             9501    +0.0                                            
RINGFL  1       1.00000         10.0000 2       2.00000         10.0000         
RINGFL  3       3.00000         10.0000 4       4.00000         10.0000         
RINGFL  5       5.00000         10.0000 6       6.00000         10.0000         
RINGFL  7       7.00000         10.0000 8       8.00000         10.0000         
RINGFL  9       9.00000         10.0000 10      10.0000         10.0000         
RINGFL  17      1.00000         9.00000 18      2.00000         9.00000         
RINGFL  19      3.00000         9.00000 20      4.00000         9.00000         
RINGFL  21      5.00000         9.00000 22      6.00000         9.00000         
RINGFL  23      7.00000         9.00000 24      8.00000         9.00000         
RINGFL  25      9.00000         9.00000 26      10.0000         9.00000         
RINGFL  33      1.00000         8.00000 34      2.00000         8.00000         
RINGFL  35      3.00000         8.00000 36      4.00000         8.00000         
RINGFL  37      5.00000         8.00000 38      6.00000         8.00000         
RINGFL  39      7.00000         8.00000 40      8.00000         8.00000         
RINGFL  41      9.00000         8.00000 42      10.0000         8.00000         
RINGFL  49      1.00000         7.00000 50      2.00000         7.00000         
RINGFL  51      3.00000         7.00000 52      4.00000         7.00000         
RINGFL  53      5.00000         7.00000 54      6.00000         7.00000         
RINGFL  55      7.00000         7.00000 56      8.00000         7.00000         
RINGFL  57      9.00000         7.00000 58      10.0000         7.00000         
$ ... 35 like lines cut
SPC1    3       126     11      12      13      14      15      16              
SPC1    3       126     171     172     173     174     175     176             
SPC1    3       135     16      32      48      64      80      96      H=3     
SPC1    3       135     112     128     144     160     176             H=3     
SPC1    3       246     11      27      43      59      75      91      H=3     
SPC1    3       246     107     123     139     155     171             H=3     
TLOAD2  10      1                       .0      1.0     .0      .0              
TSTEP   10      50      .02     2                                               
ENDDATA                                                                         
