NASTRAN FILES=PLT2                                                              
ID    D12011A,NASTRAN                                                           
APP   DISPLACEMENT                                                              
SOL   12,3                                                                      
TIME  100                                                                       
CEND                                                                            
TITLE    = TRANSIENT ANALYSIS OF A FREE ONE HUNDRED CELL BEAM                   
SUBTITLE = NASTRAN DEMONSTRATION PROBLEM NO. D12-01-1A                          
   DLOAD = 516                                                                  
   SDAMP = 15                                                                   
   TSTEP = 516                                                                  
  METHOD = 2                                                                    
OUTPUT                                                                          
   SET 1 = 1, 26, 51, 75, 100                                                   
   SET 2 = 1, 26, 76                                                            
   DISPLACEMENT = 2                                                             
   STRESS = 1                                                                   
PLOTID = NASTRAN DEMONSTRATION PROBLEM NO. D12-01-1A                            
OUTPUT(PLOT)                                                                    
PLOTTER NASTPLT                                                                 
        CAMERA = 3                                                              
CSCALE = 2.0                                                                    
        SET 1 INCLUDE BAR,                                                      
          EXCLUDE GRID POINTS 1,2,3,4,5,6,7,8,9,10,12,13,14,15,16,17,18,        
          19,20,22,23,24,25,26,27,28,29,30,32,33,34,35,36,37,38,39,40,          
          42,43,44,45,46,47,48,49,50,52,53,54,55,56,57,58,59,60,62,63,          
          64,65,66,67,68,69,70,72,73,74,75,76,77,78,79,80,82,83,84,85,          
          86,87,88,89,90,92,93,94,95,96,97,98,99,100                            
        MAXIMUM DEFORMATION  2.0                                                
STEREO PROJECTION                                                               
         FIND SCALE, ORIGIN 100, VANTAGE POINT, SET 1                           
PTITLE = PAPER COPY OF STEREOSCOPIC PROJECTION OF DEFORMATIONS                  
         PLOT TRANSIENT DEFORMATION 1, TIME 0.012, 0.013,                       
         MAXIMUM DEFORMATION 0.76, SET 1, ORIGIN 100, SHAPE                     
ORTHOGRAPHIC PROJECTION                                                         
         FIND SCALE, ORIGIN 1, REGION 0.0,0.0,1.0,0.5                           
         FIND SCALE, ORIGIN 2, REGION 0.0,0.5,1.0,1.0                           
PTITLE = DEFLECTIONS OF BARS WITH VECTORS                                       
         PLOT TRANSIENT DEFORMATION 1, TIME .012, .016,                         
         MAXIMUM DEFORMATION 1.0,                                               
         SET 1, ORIGIN 1, SHAPE ,                                               
         SET 1, ORIGIN 2, VECTOR Z                                              
$                                                                               
$                                                                               
OUTPUT(XYOUT)                                                                   
PLOTTER = NASTPLT                                                               
     CAMERA = 3                                                                 
     SKIP BETWEEN FRAMES = 1                                                    
     YGRID LINES = YES                                                          
     XGRID LINES = YES                                                          
     YDIVISIONS  = 10                                                           
     XDIVISIONS  = 10                                                           
     XVALUE PRINT SKIP = 1                                                      
     YVALUE PRINT SKIP = 1                                                      
     XTITLE =                     TIME (SECONDS)                                
     YTITLE =      D I S P  * INCH *                                            
     TCURVE = * * * * * * *  G R I D    5 1   * * * * * * * * * * * * *         
XYPLOT,XYPRINT,DISP RESP /  51(T3)                                              
     TCURVE = * * * * * * *  G R I D    1 0 1   * * * * * * * * * * * *         
XYPLOT,XYPRINT,DISP RESP / 101(T3)                                              
     YTITLE = ACCELERATION                                                      
     TCURVE = * * * * * * *  G R I D    5 1   * * * * * * * * * * * * *         
XYPLOT,XYPRINT,ACCE RESP /  51(T3)                                              
     TCURVE = * * * * * * *  G R I D    1 0 1   * * * * * * * * * * * *         
XYPLOT,XYPRINT,ACCE RESP / 101(T3)                                              
BEGIN BULK                                                                      
BAROR                                   10.0    .0      100.0   1               
CBAR    1       17      1       2                                               
CBAR    2       17      2       3                                               
CBAR    3       17      3       4                                               
CBAR    4       17      4       5                                               
CBAR    5       17      5       6                                               
CBAR    6       17      6       7                                               
CBAR    7       17      7       8                                               
CBAR    8       17      8       9                                               
CBAR    9       17      9       10                                              
CBAR    10      17      10      11                                              
CBAR    11      17      11      12                                              
CBAR    12      17      12      13                                              
CBAR    13      17      13      14                                              
CBAR    14      17      14      15                                              
CBAR    15      17      15      16                                              
CBAR    16      17      16      17                                              
CBAR    17      17      17      18                                              
CBAR    18      17      18      19                                              
CBAR    19      17      19      20                                              
CBAR    20      17      20      21                                              
$ ... 80 like lines cut
CONM2   20      1               10.0                                    +M1     
+M1                     1666.66                                                 
DAREA   1       101     3       100.                                            
EIGR    2       INV     .0      1500.   5       6                       PEG     
+EG     MASS                                                                    
GRDSET                                                  1246                    
GRID    1               .00     .00     .00                                     
GRID    2               .20     .00     .00                                     
GRID    3               .40     .00     .00                                     
GRID    4               .60     .00     .00                                     
GRID    5               .80     .00     .00                                     
GRID    6               1.00    .00     .00                                     
GRID    7               1.20    .00     .00                                     
GRID    8               1.40    .00     .00                                     
GRID    9               1.60    .00     .00                                     
GRID    10              1.80    .00     .00                                     
GRID    11              2.00    .00     .00                                     
GRID    12              2.20    .00     .00                                     
GRID    13              2.40    .00     .00                                     
GRID    14              2.60    .00     .00                                     
GRID    15              2.80    .00     .00                                     
GRID    16              3.00    .00     .00                                     
GRID    17              3.20    .00     .00                                     
GRID    18              3.40    .00     .00                                     
GRID    19              3.60    .00     .00                                     
GRID    20              3.80    .00     .00                                     
$ ... 81 like lines cut
MAT1    1       10.4+6  4.+6            .2523-3                         +MAT1   
+MAT1   111.111 11.1111                                                         
OMIT1   53      2       3       4       5       6       7       8       +100    
+100    9       10      12      13      14      15      16      17      +200    
+200    18      19      20      22      23      24      25      26      +300    
+300    27      28      29      30      32      33      34      35      +400    
+400    36      37      38      39      40      42      43      44      +500    
+500    45      46      47      48      49      50      52      53      +600    
+600    54      55      56      57      58      59      60      62      +700    
+700    63      64      65      66      67      68      69      70      +800    
+800    72      73      74      75      76      77      78      79      +900    
+900    80      82      83      84      85      86      87      88      +101    
+101    89      90      92      93      94      95      96      97      +201    
+201    98      99      100                                                     
PARAM   GRDPNT  0                                                               
PARAM   LMODES  6                                                               
PBAR    17      1       1.      .083    .083                            +PBAR   
+PBAR   1.11111 -1.11111                                                        
SUPORT  1       3       1       5                                               
TABDMP1 15                                                              +TD11   
+TD11   10.     .01     100.    .1      3000.   .1      ENDT                    
TLOAD2  516     1                       .0      .1      60.                     
TSTEP   516     104     .001388 1                                               
ENDDATA                                                                         
