ID    D13011A,NASTRAN                                                           
APP   DISPLACEMENT                                                              
SOL   13,0                                                                      
TIME  25                                                                        
CEND                                                                            
TITLE    = NORMAL MODES ANALYSIS WITH DIFFERENTIAL STIFFNESS                    
SUBTITLE = NASTRAN DEMONSTRATION PROBLEM NO. D13-01-1A                          
     SPC = 2                                                                    
     SET 1 = 11,21,31,41,51,61,71,81,91                                         
     DISPLACEMENT = 1                                                           
     ELFORCE = 1                                                                
SUBCASE 20                                                                      
   LABEL = STATICS SOLUTION.                                                    
    LOAD = 100                                                                  
   OLOAD = ALL                                                                  
SUBCASE 40                                                                      
   LABEL = SECOND ORDER STATICS SOLUTION.                                       
   DSCOEFFICIENT = DEFAULT                                                      
SUBCASE 80                                                                      
   LABEL = NORMAL MODES WITH DIFFERENTIAL STIFFNESS EFFECTS                     
  METHOD = 101                                                                  
BEGIN BULK                                                                      
BAROR                                   .0      1.      .0      1               
CBAR    1       1       1       2                                               
CBAR    2       1       2       3                                               
CBAR    3       1       3       4                                               
CBAR    4       1       4       5                                               
CBAR    5       1       5       6                                               
CBAR    6       1       6       7                                               
CBAR    7       1       7       8                                               
CBAR    8       1       8       9                                               
CBAR    9       1       9       10                                              
CBAR    10      1       10      11                                              
CBAR    11      1       11      12                                              
CBAR    12      1       12      13                                              
CBAR    13      1       13      14                                              
CBAR    14      1       14      15                                              
CBAR    15      1       15      16                                              
CBAR    16      1       16      17                                              
CBAR    17      1       17      18                                              
CBAR    18      1       18      19                                              
CBAR    19      1       19      20                                              
CBAR    20      1       20      21                                              
$ ... 80 like lines cut
EIGR    101     INV     .0      200.0   3       3       3       1.-4    +EIG1   
+EIG1   MAX                                                                     
FORCE1  100     101     3423.17 101     1                                       
GRDSET                                                  345                     
GRID    1               .0                                                      
GRID    2               1.0                                                     
GRID    3               2.0                                                     
GRID    4               3.0                                                     
GRID    5               4.0                                                     
GRID    6               5.0                                                     
GRID    7               6.0                                                     
GRID    8               7.0                                                     
GRID    9               8.0                                                     
GRID    10              9.0                                                     
GRID    11              10.0                                                    
GRID    12              11.0                                                    
GRID    13              12.0                                                    
GRID    14              13.0                                                    
GRID    15              14.0                                                    
GRID    16              15.0                                                    
GRID    17              16.0                                                    
GRID    18              17.0                                                    
GRID    19              18.0                                                    
GRID    20              19.0                                                    
$ ... 81 like lines cut
MAT1    22      10.4E6          .3      2.0E-4                                  
PBAR    1       22      2.0     .666667 .666667                                 
SPC     2       1       12      .0      101     2       .0                      
ENDDATA                                                                         
