ID    T01221A,NASTRAN                                                           
DIAG   14                                                                       
APP    DISP                                                                     
SOL    1,0                                                                      
TIME   20                                                                       
CEND                                                                            
TITLE    = ANISOTROPIC IHEX2 ELEMENT PROBLEM                                    
SUBTITLE = NASTRAN TEST PROBLEM NO. T01-22-1A                                   
SPCF  = ALL                                                                     
SPC   = 11                                                                      
OLOAD = ALL                                                                     
DISP  = ALL                                                                     
STRESS= ALL                                                                     
SUBCASE 1                                                                       
LOAD  = 29                                                                      
BEGIN BULK                                                                      
CORD2R  30              0.      0.      0.      0.      0.      1.      +C1     
+C1     1.      0.      1.                                                      
PIHEX   1       31      30      3                                               
MAT6    31      .232+7  -.211+7 .0316+7 .158+7  .105+7  .0526+7 .737+7  +M1     
+M1     -.211+7 -.553+7 -.368+7 -.184+7 .232+7  .158+7  .105+7  .0526+7 +M2     
+M2     .664+7  .276+7  .138+7  .434+7  .0921+7 .296+7  7.324-4                 
SPC1    11      1       1       29      41                                      
SPC1    11      2       1       2       3       29      30      41              
SPC1    11      2       42      43                                              
SPC1    11      123     1                                                       
PLOAD3  29      -10.    10501   26      68                                      
GRDSET                                                  456                     
CIHEX2     10101       1       1       2       3       5       8       7CIH    1
+IH    1       6       4      29      30      32      31      41      42CIH    2
+IH    2      43      45      48      47      46      44                        
CIHEX2     10201       1       6       7       8      10      13      12CIH    3
+IH    3      11       9      31      32      34      33      46      47CIH    4
+IH    4      48      50      53      52      51      49                        
CIHEX2     10301       1      11      12      13      15      18      17CIH    5
+IH    5      16      14      33      34      36      35      51      52CIH    6
+IH    6      53      55      58      57      56      54                        
CIHEX2     10401       1      16      17      18      20      23      22CIH    7
+IH    7      21      19      35      36      38      37      56      57CIH    8
+IH    8      58      60      63      62      61      59                        
CIHEX2     10501       1      21      22      23      25      28      27CIH    9
+IH    9      26      24      37      38      40      39      61      62CIH   10
+IH   10      63      65      68      67      66      64                        
GRID           1            .000   0.000   0.000                                
GRID           2            .500   0.000   0.000                                
GRID           3           1.000   0.000   0.000                                
GRID           4            .000   1.000   0.000                                
GRID           5           1.000   1.000   0.000                                
GRID           6            .000   2.000   0.000                                
GRID           7            .500   2.000   0.000                                
GRID           8           1.000   2.000   0.000                                
GRID           9            .000   3.000   0.000                                
GRID          10           1.000   3.000   0.000                                
GRID          11            .000   4.000   0.000                                
GRID          12            .500   4.000   0.000                                
GRID          13           1.000   4.000   0.000                                
GRID          14           -.000   5.000   0.000                                
GRID          15           1.000   5.000   0.000                                
GRID          16           -.000   6.000   0.000                                
GRID          17            .500   6.000   0.000                                
GRID          18           1.000   6.000   0.000                                
GRID          19            .000   7.000   0.000                                
GRID          20           1.000   7.000   0.000                                
$ ... 48 like lines cut
ENDDATA                                                                         
