ID    T01291A,NASTRAN                                                           
DIAG  40                                                                        
SOL   1,0                                                                       
APP   DISP                                                                      
TIME  30                                                                        
CEND                                                                            
TITLE    = COMPO5 QUAD4 4-NODE SHELL ROOF TEST LAMINATED COMPOSITE SHELL        
SUBTITLE = NASTRAN TEST PROBLEM NO. T01-29-1A                                   
$                                                                               
$                                                                               
$    MODEL: LAMINATED COMPOSITE SHELL ROOF MODEL.                               
$           SYMMETRIC ANGLE PLY LAYUP                                           
$           [ 45/-45/15/-15/-15/15/-45/45 ]                                     
$                                                                               
$                                                                               
SPC  = 1                                                                        
LOAD = 1                                                                        
DISP = ALL                                                                      
BEGIN BULK                                                                      
GRID           1       1  25.000   0.000   0.000       1                        
GRID           2       1  25.000   5.000   0.000       1                        
GRID           3       1  25.000  10.000   0.000       1                        
GRID           4       1  25.000  15.000   0.000       1                        
GRID           5       1  25.000  20.000   0.000       1                        
GRID           6       1  25.000  25.000   0.000       1                        
GRID           7       1  25.000  30.000   0.000       1                        
GRID           8       1  25.000  35.000   0.000       1                        
GRID           9       1  25.000  40.000   0.000       1                        
GRID          10       1  25.000   0.000   3.125       1                        
GRID          11       1  25.000   5.000   3.125       1                        
GRID          12       1  25.000  10.000   3.125       1                        
GRID          13       1  25.000  15.000   3.125       1                        
GRID          14       1  25.000  20.000   3.125       1                        
GRID          15       1  25.000  25.000   3.125       1                        
GRID          16       1  25.000  30.000   3.125       1                        
GRID          17       1  25.000  35.000   3.125       1                        
GRID          18       1  25.000  40.000   3.125       1                        
GRID          19       1  25.000   0.000   6.250       1                        
GRID          20       1  25.000   5.000   6.250       1                        
$ ... 62 like lines cut
CQUAD4         2       1       1       2      11      10                        
CQUAD4         3       1       2       3      12      11                        
CQUAD4         4       1       3       4      13      12                        
CQUAD4         5       1       4       5      14      13                        
CQUAD4         6       1       5       6      15      14                        
CQUAD4         7       1       6       7      16      15                        
CQUAD4         8       1       7       8      17      16                        
CQUAD4         9       1       8       9      18      17                        
CQUAD4        10       1      10      11      20      19                        
CQUAD4        11       1      11      12      21      20                        
CQUAD4        12       1      12      13      22      21                        
CQUAD4        13       1      13      14      23      22                        
CQUAD4        14       1      14      15      24      23                        
CQUAD4        15       1      15      16      25      24                        
CQUAD4        16       1      16      17      26      25                        
CQUAD4        17       1      17      18      27      26                        
CQUAD4        18       1      19      20      29      28                        
CQUAD4        19       1      20      21      30      29                        
CQUAD4        20       1      21      22      31      30                        
CQUAD4        21       1      22      23      32      31                        
$ ... 44 like lines cut
CORD2C  1               0.0     0.0     0.0     -1.0    0.0     0.0     +MOR1001
+MOR10010.0     0.0     1.0                                                     
CORD2R  2       0       0.0     0.0     0.0     0.0     0.0     1.0     +C2     
+C2     1.0     0.0     0.0                                                     
CORD2R  3       0       0.0     0.0     0.0     0.0     0.0     1.0     +C3     
+C3     1.0     0.0     0.0                                                     
MAT8    1       20.0 E+70.5 E+070.25    0.25 E+70.25 E+70.25 E+7                
PARAM   AUTOSPC 1                                                               
PCOMP   1                                                               +PC1    
+PC1    1       .03125  45.0    YES                     -45.0   YES     +PC2    
+PC2    1       .03125  15.0    YES                     -15.0   YES     +PC3    
+PC3    1       .03125  -15.0   YES                     15.0    YES     +PC4    
+PC4    1       .03125  -45.0   YES                     45.0    YES             
PLOAD4  1       2       90.0                            THRU    65      +PL1    
+PL1    2       0.0     0.0     -1.0                                            
CRIGD1  1       81      5001                                                    
SPC1    1       12      1       2       3       4       5       6       +SP10001
+SP100017       8       9                                                       
SPC1    1       26      1       10      19      28      37      46      +SP10005
+SP1000555      64      73                                                      
SPC1    1       35      73      74      75      76      77      78      +SP10003
+SP1000379      80      81                                                      
ENDDATA                                                                         
