NASTRAN FILES=PLT2                                                              
ID    T01271A,NASTRAN                                                           
DIAG  40                                                                        
SOL   1,0                                                                       
APP   DISP                                                                      
TIME  100                                                                       
CEND                                                                            
TITLE    = QUAD4 COMPOSITE TUBE - SYMMETRIC LAYUP [45/-45/0/90]S                
SUBTITLE = NASTRAN TEST PROBLEM NO. T01-27-1A                                   
LABEL    = TUBE UNDER CONSTANT PRESSURE P                                       
$                                                                               
$                                                                               
$    MODEL: SECTION OF A OPEN TUBE RADIUS R, UNDER PRESSURE P.                  
$           SYMMETRIC LAYUP [45/-45/0/90/90/0/-45/45]                           
$                                                                               
$        * *  HOOP LOADING FY FOR ELEMENT ID 8 * *                              
$                                                                               
$                                                                               
$        HOOP LOADING FY = P * R = 10.5 * 50 = 5.25E5                           
$                                                                               
$        THEORETICAL                                                            
$        ------------------------------------------------                       
$        5.25E2                                                                 
$                                                                               
$                                                                               
$        * * LAYER STRESSES FOR ELEMENT ID 8 * *                                
$                                                                               
$        ------------------------------------------------------                 
$                   SIG1           SIG2       TAU12                             
$         LAYER 1  2.524E2       1.741E1      2.277E1                           
$         LAYER 2  2.494E2       1.751E1     -2.276E1                           
$         LAYER 3 -2.259E2       3.231E1      1.944E-2                          
$         LAYER 4  7.271E2       2.652E0      1.556E-2                          
$         LAYER 5  7.270E2       2.660E0      5.054E-2                          
$         LAYER 6 -2.253E2       3.230E1     -8.551E-2                          
$         LAYER 7  2.534E2       1.741E1     -2.273E1                           
$         LAYER 8  2.477E2       1.759E1      2.272E1                           
$                                                                               
$                                                                               
$                                                                               
SPC   = 1                                                                       
SET 1 = 29,45,61,77                                                             
SET 2 = 8,24                                                                    
DISP(PRINT)   = 1                                                               
STRESS(LAYER) = 2                                                               
FORCE(PRINT)  = 2                                                               
SUBCASE 1                                                                       
  LOAD = 1                                                                      
OUTPUT(PLOT)                                                                    
SET 1  = ALL                                                                    
PLOT SET 1                                                                      
PLOT SET 1, HIDD                                                                
BEGIN BULK                                                                      
CORD2C  1               0.0     0.0     0.0     0.0     0.0     1.0     +MOR1001
+MOR10011.0     0.0     0.0                                                     
MAT8    1       73.8 E+33.75 E+30.4     1.74 E+3                        +MA1    
+MA1                            1680.   -229.0  20.9    -137.0  82.9            
PCOMP   2       -0.96           10000.0 HILL                    SYM     +PC1    
+PC1    1       .24     45.0    YES                     -45.0   YES     +PC2    
+PC2                    0.0     YES                     90.0    YES             
PLOAD4  1       1       10.5                            THRU    128             
SPC1    1       3       1       9       16      24                              
SPC1    1       145     9       24      136     137                             
SPC1    1       245     1       16      129     144                             
GRID           1       1  50.000 180.000   0.000                                
GRID           2       1  50.000 202.500   0.000                                
GRID           3       1  50.000 157.500   0.000                                
GRID           4       1  50.000 225.000   0.000                                
GRID           5       1  50.000 135.000   0.000                                
GRID           6       1  50.000 247.500   0.000                                
GRID           7       1  50.000 112.500   0.000                                
GRID           8       1  50.000 270.000   0.000                                
GRID           9       1  50.000  90.000   0.000                                
GRID          10       1  50.000 292.500   0.000                                
GRID          11       1  50.000  67.500   0.000                                
GRID          12       1  50.000 315.000   0.000                                
GRID          13       1  50.000  45.000   0.000                                
GRID          14       1  50.000 337.500   0.000                                
GRID          15       1  50.000  22.500   0.000                                
GRID          16       1  50.000   0.000   0.000                                
GRID          17       1  50.000 180.000  10.000                                
GRID          18       1  50.000 202.500  10.000                                
GRID          19       1  50.000 157.500  10.000                                
GRID          20       1  50.000 225.000  10.000                                
$ ... 124 like lines cut
CQUAD4  1       2       17      33      35      19                              
CQUAD4  2       2       19      35      37      21                              
CQUAD4  3       2       17      18      34      33                              
CQUAD4  4       2       18      20      36      34                              
CQUAD4  5       2       24      26      42      40                              
CQUAD4  6       2       26      28      44      42                              
CQUAD4  7       2       24      40      38      22                              
CQUAD4  8       2       22      38      36      20                              
CQUAD4  9       2       25      23      39      41                              
CQUAD4  10      2       23      21      37      39                              
CQUAD4  11      2       25      41      43      27                              
CQUAD4  12      2       27      43      45      29                              
CQUAD4  13      2       32      48      46      30                              
CQUAD4  14      2       30      46      44      28                              
CQUAD4  15      2       32      31      47      48                              
CQUAD4  16      2       31      29      45      47                              
CQUAD4  17      2       33      49      51      35                              
CQUAD4  18      2       35      51      53      37                              
CQUAD4  19      2       33      34      50      49                              
CQUAD4  20      2       34      36      52      50                              
$ ... 108 like lines cut
ENDDATA                                                                         
