ID    T01331A,NASTRAN                                                           
SOL   1,0                                                                       
APP   DISP                                                                      
TIME  30                                                                        
CEND                                                                            
TITLE    = CTRIA3 3-NODE SHELL ROOF TEST                                        
SUBTITLE = NASTRAN TEST PROBLEM NO. T01-33-1A                                   
LABEL    = LAMINATED COMPOSITE SHELL                                            
$                                                                               
$                                                                               
$    MODEL: LAMINATED COMPOSITE SHELL ROOF MODEL.                               
$           SYMMETRIC ANGLE PLY LAYUP                                           
$           [ 45/-45/15/-15/-15/15/-45/45 ]                                     
$                                                                               
$                                                                               
$       * * COMPARISION OF T1 DEFLECTIONS AT * *                                
$       * * GRID POINTS 34,35,36,43,44,45    * *                                
$                                                                               
$                COSMIC/NASTRAN           MSC/NASTRAN                           
$   USING:     CTRIA3      CQUAD4      CTRIA3     CQUAD4                        
$           -----------------------------------------------                     
$   GRID 34    -0.9839    -1.1187     -0.9928    -1.0662                        
$   GRID 35    -1.2566    -1.4143     -1.2466    -1.3441                        
$   GRID 36    -1.5126    -1.6911     -1.5300    -1.6074                        
$   GRID 43    -1.2343    -1.3918     -1.2262    -1.3267                        
$   GRID 44    -1.5792    -1.7590     -1.5955    -1.6739                        
$   GRID 45    -1.9093    -2.1082     -1.9309    -2.0079                        
$                                                                               
$                                                                               
SPC  = 1                                                                        
LOAD = 1                                                                        
DISP = ALL                                                                      
BEGIN BULK                                                                      
GRID           1       1  25.000   0.000   0.000       1                        
GRID           2       1  25.000   5.000   0.000       1                        
GRID           3       1  25.000  10.000   0.000       1                        
GRID           4       1  25.000  15.000   0.000       1                        
GRID           5       1  25.000  20.000   0.000       1                        
GRID           6       1  25.000  25.000   0.000       1                        
GRID           7       1  25.000  30.000   0.000       1                        
GRID           8       1  25.000  35.000   0.000       1                        
GRID           9       1  25.000  40.000   0.000       1                        
GRID          10       1  25.000   0.000   3.125       1                        
GRID          11       1  25.000   5.000   3.125       1                        
GRID          12       1  25.000  10.000   3.125       1                        
GRID          13       1  25.000  15.000   3.125       1                        
GRID          14       1  25.000  20.000   3.125       1                        
GRID          15       1  25.000  25.000   3.125       1                        
GRID          16       1  25.000  30.000   3.125       1                        
GRID          17       1  25.000  35.000   3.125       1                        
GRID          18       1  25.000  40.000   3.125       1                        
GRID          19       1  25.000   0.000   6.250       1                        
GRID          20       1  25.000   5.000   6.250       1                        
$ ... 62 like lines cut
CORD2C  1               0.0     0.0     0.0     -1.0    0.0     0.0     +MOR1001
+MOR10010.0     0.0     1.0                                                     
CORD2R  2       0       0.0     0.0     0.0     0.0     0.0     1.0     +C2     
+C2     1.0     0.0     0.0                                                     
CORD2R  3       0       0.0     0.0     0.0     0.0     0.0     1.0     +C3     
+C3     1.0     0.0     0.0                                                     
MAT8    1       20.0 E+70.5 E+070.25    0.25 E+70.25 E+70.25 E+7                
PARAM   AUTOSPC 1                                                               
PCOMP   1                                                               +PC1    
+PC1    1       .03125  45.0    YES                     -45.0   YES     +PC2    
+PC2    1       .03125  15.0    YES                     -15.0   YES     +PC3    
+PC3    1       .03125  -15.0   YES                     15.0    YES     +PC4    
+PC4    1       .03125  -45.0   YES                     45.0    YES             
CRIGD1  1       81      5001                                                    
SPC1    1       12      1       2       3       4       5       6       +SP10001
+SP100017       8       9                                                       
SPC1    1       26      1       10      19      28      37      46      +SP10005
+SP1000555      64      73                                                      
SPC1    1       35      73      74      75      76      77      78      +SP10003
+SP1000379      80      81                                                      
CTRIA3         1       1       1       2      10                                
PLOAD          1-0.9E+02       1       2      10                                
CTRIA3         2       1      10       2      11  45.000                        
PLOAD          1-0.9E+02      10       2      11                                
CTRIA3         3       1       2       3      11                                
PLOAD          1-0.9E+02       2       3      11                                
CTRIA3         4       1      11       3      12  45.000                        
PLOAD          1-0.9E+02      11       3      12                                
CTRIA3         5       1       3       4      12                                
PLOAD          1-0.9E+02       3       4      12                                
CTRIA3         6       1      12       4      13  45.000                        
PLOAD          1-0.9E+02      12       4      13                                
CTRIA3         7       1       4       5      13                                
PLOAD          1-0.9E+02       4       5      13                                
CTRIA3         8       1      13       5      14  45.000                        
PLOAD          1-0.9E+02      13       5      14                                
CTRIA3         9       1       5       6      14                                
PLOAD          1-0.9E+02       5       6      14                                
CTRIA3        10       1      14       6      15  45.000                        
PLOAD          1-0.9E+02      14       6      15                                
CTRIA3        11       1       6       7      15                                
PLOAD          1-0.9E+02       6       7      15                                
CTRIA3        12       1      15       7      16  45.000                        
PLOAD          1-0.9E+02      15       7      16                                
CTRIA3        13       1       7       8      16                                
PLOAD          1-0.9E+02       7       8      16                                
CTRIA3        14       1      16       8      17  45.000                        
PLOAD          1-0.9E+02      16       8      17                                
CTRIA3        15       1       8       9      17                                
PLOAD          1-0.9E+02       8       9      17                                
CTRIA3        16       1      17       9      18  45.000                        
PLOAD          1-0.9E+02      17       9      18                                
CTRIA3        17       1      10      11      19                                
PLOAD          1-0.9E+02      10      11      19                                
CTRIA3        18       1      19      11      20  45.000                        
PLOAD          1-0.9E+02      19      11      20                                
CTRIA3        19       1      11      12      20                                
PLOAD          1-0.9E+02      11      12      20                                
CTRIA3        20       1      20      12      21  45.000                        
PLOAD          1-0.9E+02      20      12      21                                
$ ... 216 like lines cut
ENDDATA                                                                         
