ID    T03091A,NASTRAN                                                           
SOL   3                                                                         
TIME  20                                                                        
APP   DISP                                                                      
CEND                                                                            
TITLE    = TRAPEZOIDAL (TRAPAX) ELEMENT PROBLEM                                 
SUBTITLE = NASTRAN TEST PROBLEM NO. T03-09-1A                                   
  METHOD = 1                                                                    
  AXISYM = COSINE                                                               
SUBCASE  1                                                                      
   DISP  = ALL                                                                  
   MODES = 5                                                                    
SUBCASE  6                                                                      
   DISP  = NONE                                                                 
BEGIN BULK                                                                      
AXIC    1                                                                       
PTRAPAX 1               1                                                       
PARAM   COUPMASS1                                                               
MAT1    1       3.+7            .3      7.8-3                                   
EIGR    1       INV     0.      5000.   10      10              1.-3    +E      
+E      MAX                                                                     
RINGAX         1          5.0000  2.0000                2456                    
RINGAX         2          5.4167  2.0000                2456                    
RINGAX         3          5.8333  2.0000                2456                    
RINGAX         4          6.2500  2.0000                2456                    
RINGAX         5          5.0000  2.2917                2456                    
RINGAX         6          5.4167  2.2917                2456                    
RINGAX         7          5.8333  2.2917                2456                    
RINGAX         8          6.2500  2.2917                2456                    
RINGAX         9          5.0000  2.5833                2456                    
RINGAX        10          5.4167  2.5833                2456                    
RINGAX        11          5.8333  2.5833                2456                    
RINGAX        12          6.2500  2.5833                2456                    
RINGAX        13          5.0000  2.8750                2456                    
RINGAX        14          5.4167  2.8750                2456                    
RINGAX        15          5.8333  2.8750                2456                    
RINGAX        16          6.2500  2.8750                2456                    
RINGAX        17          5.0000  3.1667                2456                    
RINGAX        18          5.4167  3.1667                2456                    
RINGAX        19          5.8333  3.1667                2456                    
RINGAX        20          6.2500  3.1667                2456                    
$ ... 32 like lines cut
CTRAPAX        11              1       2       6       5                        
CTRAPAX        21              2       3       7       6                        
CTRAPAX        31              3       4       8       7                        
CTRAPAX        51              5       6      10       9                        
CTRAPAX        61              6       7      11      10                        
CTRAPAX        71              7       8      12      11                        
CTRAPAX        91              9      10      14      13                        
CTRAPAX       101             10      11      15      14                        
CTRAPAX       111             11      12      16      15                        
CTRAPAX       131             13      14      18      17                        
CTRAPAX       141             14      15      19      18                        
CTRAPAX       151             15      16      20      19                        
CTRAPAX       171             17      18      22      21                        
CTRAPAX       181             18      19      23      22                        
CTRAPAX       191             19      20      24      23                        
CTRAPAX       211             21      22      26      25                        
CTRAPAX       221             22      23      27      26                        
CTRAPAX       231             23      24      28      27                        
CTRAPAX       251             25      26      30      29                        
CTRAPAX       261             26      27      31      30                        
$ ... 16 like lines cut
ENDDATA                                                                         
