ID    T03101A,NASTRAN                                                           
SOL   3                                                                         
TIME  20                                                                        
APP   DISP                                                                      
CEND                                                                            
TITLE    = TRAPEZOIDAL (TRAPRG) ELEMENT PROBLEM                                 
SUBTITLE = NASTRAN TEST PROBLEM NO. T03-10-1A                                   
  METHOD = 1                                                                    
SUBCASE  1                                                                      
  DISP   = ALL                                                                  
  MODES  = 5                                                                    
SUBCASE  6                                                                      
  DISP   = NONE                                                                 
BEGIN BULK                                                                      
PARAM   COUPMASS1                                                               
GRDSET                                                    2456                  
MAT1    1       3.+7            .3      7.8-3                                   
EIGR    1       INV     0.      5000.   10      10              1.-3    +E      
+E      MAX                                                                     
GRID           1          5.0000          2.0000                                
GRID           2          5.4167          2.0000                                
GRID           3          5.8333          2.0000                                
GRID           4          6.2500          2.0000                                
GRID           5          5.0000          2.2917                                
GRID           6          5.4167          2.2917                                
GRID           7          5.8333          2.2917                                
GRID           8          6.2500          2.2917                                
GRID           9          5.0000          2.5833                                
GRID          10          5.4167          2.5833                                
GRID          11          5.8333          2.5833                                
GRID          12          6.2500          2.5833                                
GRID          13          5.0000          2.8750                                
GRID          14          5.4167          2.8750                                
GRID          15          5.8333          2.8750                                
GRID          16          6.2500          2.8750                                
GRID          17          5.0000          3.1667                                
GRID          18          5.4167          3.1667                                
GRID          19          5.8333          3.1667                                
GRID          20          6.2500          3.1667                                
$ ... 32 like lines cut
CTRAPRG        1       1       2       6       5        1                       
CTRAPRG        2       2       3       7       6        1                       
CTRAPRG        3       3       4       8       7        1                       
CTRAPRG        5       5       6      10       9        1                       
CTRAPRG        6       6       7      11      10        1                       
CTRAPRG        7       7       8      12      11        1                       
CTRAPRG        9       9      10      14      13        1                       
CTRAPRG       10      10      11      15      14        1                       
CTRAPRG       11      11      12      16      15        1                       
CTRAPRG       13      13      14      18      17        1                       
CTRAPRG       14      14      15      19      18        1                       
CTRAPRG       15      15      16      20      19        1                       
CTRAPRG       17      17      18      22      21        1                       
CTRAPRG       18      18      19      23      22        1                       
CTRAPRG       19      19      20      24      23        1                       
CTRAPRG       21      21      22      26      25        1                       
CTRAPRG       22      22      23      27      26        1                       
CTRAPRG       23      23      24      28      27        1                       
CTRAPRG       25      25      26      30      29        1                       
CTRAPRG       26      26      27      31      30        1                       
$ ... 16 like lines cut
ENDDATA                                                                         
