NASTRAN  SYSTEM(93)=1                                                           
ID    T08031A,NASTRAN                                                           
APP   DISP                                                                      
SOL   8                                                                         
DIAG  14                                                                        
TIME  500                                                                       
$                                                                               
READFILE COSMFVA                                                                
$                                                                               
CEND                                                                            
TITLE    = FREQ. RESPONSE OF A TURBOPROP TO 1 PER REV. OSC. AIRLOADS            
SUBTITLE = NASTRAN TEST PROBLEM NO. T08-03-1A                                   
LABEL    = K = 0 MODES, OSCILLATORY AIRLOADS PRESENT                            
$                                                                               
  SPC       = 1                                                                 
  MPC       = 1                                                                 
  METHOD    = 1                                                                 
  FREQUENCY = 1                                                                 
  DLOAD     = 1000                                                              
$                                                                               
  DISP(SORT1,PHASE)   = ALL                                                     
  STRESS(SORT1,PHASE) = ALL                                                     
$                                                                               
$   NOTE ---                                                                    
$   THE FOLLOWING DATA IS FOR A RIGID HUB AND UNIFORM FLOW                      
$                                                                               
BEGIN BULK                                                                      
CORD2R  77      0       .0      .0      .0      .0      .0      1.      +C2R    
+C2R    10.     -0.618  .0                                                      
CTRIA2  1       1       10      9       8                                       
CTRIA2  2       2       11      10      8                                       
CTRIA2  3       3       8       7       11                                      
CTRIA2  4       4       12      11      7                                       
CTRIA2  5       5       7       1       12                                      
CTRIA2  6       6       13      12      1                                       
CTRIA2  7       7       1       2       13                                      
CTRIA2  8       8       14      13      2                                       
CTRIA2  9       9       2       3       14                                      
CTRIA2  10      10      15      14      3                                       
CTRIA2  11      11      3       4       15                                      
CTRIA2  12      12      16      15      4                                       
CTRIA2  13      13      4       5       16                                      
CTRIA2  14      14      17      16      5                                       
CTRIA2  15      15      5       6       17                                      
CTRIA2  16      16      20      19      18                                      
CTRIA2  17      17      21      20      18                                      
CTRIA2  18      18      18      9       21                                      
CTRIA2  19      19      22      21      9                                       
CTRIA2  20      20      9       10      22                                      
$ ... 326 like lines cut
CYJOIN  1               199                                                     
CYJOIN  2               205                                                     
EIGR    1       FEER                            4                       +EIG1   
+EIG1   MAX                                                                     
GRDSET          77                                                              
GRID           1           1.808   1.839  12.250                                
GRID           3           2.376   2.347  12.250                                
GRID           4           2.625   2.558  12.250                                
GRID           5           2.877   2.765  12.250                                
GRID           6           3.134   2.966  12.250                                
GRID           7           1.556   1.589  12.033                                
GRID           8           1.304   1.339  11.817                                
GRID           9           1.052   1.088  11.600                                
GRID          10           1.293   1.308  11.600                                
GRID          12           1.791   1.730  11.600                                
GRID          13           2.044   1.937  11.600                                
GRID          14           2.298   2.141  11.600                                
GRID          15           2.555   2.343  11.600                                
GRID          16           2.814   2.542  11.600                                
GRID          17           3.078   2.733  11.600                                
GRID          18           0.737   0.793  11.300                                
GRID          19           0.423   0.498  11.000                                
GRID          20           0.725   0.761  11.000                                
GRID          22           1.347   1.264  11.000                                
GRID          23           1.663   1.510  11.000                                
$ ... 186 like lines cut
MAT1    1       1.6  E7         .35     .0004141                                
MPC     1       5       4       1.0     4       4       -1.0                    
MPC     1       6       4       1.0     4       4       -1.0                    
MPC     1       7       4       1.0     1       4       -1.0                    
PTRIA2  1       1       .01570                                                  
PTRIA2  2       1       .02827                                                  
PTRIA2  3       1       .01897                                                  
PTRIA2  4       1       .03380                                                  
PTRIA2  5       1       .02043                                                  
PTRIA2  6       1       .03623                                                  
PTRIA2  7       1       .02917                                                  
PTRIA2  8       1       .04440                                                  
PTRIA2  9       1       .03830                                                  
PTRIA2  10      1       .04253                                                  
PTRIA2  11      1       .03677                                                  
PTRIA2  12      1       .03397                                                  
PTRIA2  13      1       .02740                                                  
PTRIA2  14      1       .01673                                                  
PTRIA2  15      1       .00823                                                  
PTRIA2  16      1       .01970                                                  
PTRIA2  17      1       .03550                                                  
PTRIA2  18      1       .02390                                                  
PTRIA2  19      1       .04250                                                  
PTRIA2  20      1       .03487                                                  
$ ... 326 like lines cut
SEQGP   1       9       2       8       3       7       4       4               
SEQGP   5       2       6       1       7       10      8       11              
SEQGP   9       20      10      19      11      18      12      17              
SEQGP   13      16      14      15      15      12      16      5               
SEQGP   17      3       18      21      19      30      20      29              
SEQGP   21      28      22      27      23      26      24      25              
SEQGP   25      22      26      13      27      6       28      39              
SEQGP   29      38      30      37      31      36      32      35              
SEQGP   33      34      34      31      35      23      36      14              
SEQGP   37      47      38      48      39      46      40      45              
SEQGP   41      44      42      43      43      40      44      32              
SEQGP   45      24      46      56      47      57      48      55              
SEQGP   49      54      50      53      51      52      52      49              
SEQGP   53      41      54      33      55      66      56      67              
SEQGP   57      65      58      64      59      63      60      62              
SEQGP   61      58      62      50      63      42      64      76              
SEQGP   65      77      66      75      67      74      68      73              
SEQGP   69      72      70      68      71      59      72      51              
SEQGP   73      86      74      87      75      85      76      84              
SEQGP   77      83      78      82      79      78      80      69              
$ ... 32 like lines cut
SPC1    1       5       17      27      36      14      10      45              
SPC1    1       5       23      54      37      112     146     185             
SPC1    1       5       186     192     187     188     189     190             
SPC1    1       5       191     193     194     195     196     197             
SPC1    1       5       198                                                     
SPC1    1       123456  199     THRU    205                                     
PARAM   LMODES  5                                                               
PARAM   KGGIN   -1                                                              
AERO*   0                0.91639E+04     0.28149E+01     0.91790E-07    *AERO   
*AERO                                                                           
PARAM   CYCIO         -1                                                        
PARAM   IREF          60                                                        
PARAM   MAXMACH    0.950                                                        
PARAM   MINMACH    1.010                                                        
PARAM   NSEGS          8                                                        
PARAM   RPS       133.33                                                        
PARAM*  Q                  0.3854121E+01                                *PARAMQ 
*PARAMQ                                                                         
PARAM*  BOV                0.1535890E-03                                *PARAMB 
*PARAMB                                                                         
STREAML1      10     175     177     163     166     156                        
STREAML2      10       5    7.79   4.032   0.322   2.085   0.786.9179- 7+2    10
+2    10 10316.6  -14.88                                                        
STREAML1      20     138     140     129     131     121                        
STREAML2      20       5   17.14   4.675   0.108   3.508   0.827.9179- 7+2    20
+2    20 10859.5  -12.13                                                        
STREAML1      30      99     101     103     105     111                        
STREAML2      30       5   18.27   4.876  -0.178   4.955   0.877.9179- 7+2    30
+2    30 11513.1    6.97                                                        
STREAML1      40      64      75      77      92     108                        
STREAML2      40       5   18.50   4.529  -0.312   6.339   0.826.9179- 7+2    40
+2    40 10848.5   26.04                                                        
STREAML1      50      37      49      60      70      82                        
STREAML2      50       5   21.10   3.799  -0.408   7.703   0.742.9179- 7+2    50
+2    50  9745.6   40.02                                                        
STREAML1      60      18      21      33      44      54                        
STREAML2      60       5   24.78   2.815  -0.570   8.894   0.698.9179- 7+2    60
+2    60  9163.9   47.18                                                        
STREAML1      70       1      13      14      15      27                        
STREAML2      70       5   31.02   1.805  -0.570   9.716   0.834.9179- 7+2    70
+2    70 10952.6   40.07                                                        
FREQ    1          133.3                                                        
MKAERO2  -45.000   0.129                                                        
PARAM   KMAX           0                                                        
PARAM   KMIN           0                                                        
RLOAD1  1000    11              12      13                                      
TABLED1*13                                                              *TB13A  
*TB13A                                                                  *TB13B  
*TB13B  0.0             0.0                  133.19667  0.0             *TB13C  
*TB13C       133.19667  1.0                  133.46333  1.0             *TB13D  
*TB13D       133.46333  0.0             1.0E10          0.0             *TB13E  
*TB13E  ENDT                                                                    
DAREA*  11                           175               1  0.16697867E+00        
DPHASE* 12                           175               1           38.30        
DAREA*  11                           175               2  0.11229591E+01        
DPHASE* 12                           175               2         -141.70        
DAREA*  11                           175               3  0.11429680E+00        
DPHASE* 12                           175               3         -141.70        
DAREA*  11                           177               1  0.15455769E+00        
DPHASE* 12                           177               1           47.47        
DAREA*  11                           177               2  0.10394259E+01        
DPHASE* 12                           177               2         -132.53        
DAREA*  11                           177               3  0.10579464E+00        
DPHASE* 12                           177               3         -132.53        
DAREA*  11                           163               1  0.91613639E-01        
DPHASE* 12                           163               1           62.64        
DAREA*  11                           163               2  0.61611682E+00        
DPHASE* 12                           163               2         -117.36        
DAREA*  11                           163               3  0.62709480E-01        
DPHASE* 12                           163               3         -117.36        
DAREA*  11                           166               1  0.68733418E-01        
DPHASE* 12                           166               1           73.66        
DAREA*  11                           166               2  0.46224357E+00        
DPHASE* 12                           166               2         -106.34        
DAREA*  11                           166               3  0.47047983E-01        
DPHASE* 12                           166               3         -106.34        
DAREA*  11                           156               1  0.21958183E-01        
DPHASE* 12                           156               1           84.65        
DAREA*  11                           156               2  0.14767240E+00        
DPHASE* 12                           156               2          -95.35        
DAREA*  11                           156               3  0.15030363E-01        
DPHASE* 12                           156               3          -95.35        
DAREA*  11                           138               1  0.57418266E+00        
DPHASE* 12                           138               1           16.20        
DAREA*  11                           138               2  0.19500249E+01        
DPHASE* 12                           138               2         -163.80        
DAREA*  11                           138               3  0.20845945E+00        
DPHASE* 12                           138               3         -163.80        
DAREA*  11                           140               1  0.60323770E+00        
DPHASE* 12                           140               1           29.39        
DAREA*  11                           140               2  0.20487010E+01        
DPHASE* 12                           140               2         -150.61        
$ ... 170 like lines cut
ENDDATA                                                                         
