ID    T09051A,NASTRAN                                                           
APP   AERO                                                                      
SOL   9                                                                         
DIAG  14                                                                        
TIME  20                                                                        
CEND                                                                            
TITLE    = MODAL FLUTTER ANALYSIS OF A ROTOR BLADE                              
SUBTITLE = NASTRAN TEST PROBLEM NO. T09-05-1A                                   
SPC     = 500                                                                   
MPC     = 600                                                                   
FMETHOD = 30                                                                    
METHOD  = 10                                                                    
CMETHOD = 20                                                                    
DISP = ALL                                                                      
OUTPUT(XYOUT)                                                                   
XTITLE  = VELOCITY-V                                                            
YTTITLE = DAMPING-G                                                             
YBTITLE = FREQUENCY-F                                                           
XYPAPERPLOT VG /1(G,F),4(G,F),7(G,F)/2(G,F),5(G,F),8(G,F)/                      
                3(G,F),6(G,F),9(G,F)                                            
BEGIN BULK                                                                      
AERO    0       1.3+4   1.86958 1.507-6                                         
CHEXA1  201     1       101     103     104     108     113     115     +CH1    
+CH1    116     120                                                             
CHEXA1  202     1       108     104     105     107     120     116     +CH2    
+CH2    117     119                                                             
CHEXA1  203     1       121     123     124     128     101     103     +CH3    
+CH3    104     108                                                             
CHEXA1  204     1       128     124     125     127     108     104     +CH4    
+CH4    105     107                                                             
CORD2C  1               0.      0.      0.      1.0     0.      0.      +CD1    
+CD1    0.      0.      1.                                                      
CTRIA2         1    2000       1       5       4                                
CTRIA2         2    2000       1       2       5                                
CTRIA2         3    2005       2       6       5                                
CTRIA2         4    2005       2       3       6                                
CTRIA2         5    2010       4       8       7                                
CTRIA2         6    2010       4       5       8                                
CTRIA2         7    2015       5       9       8                                
CTRIA2         8    2015       5       6       9                                
CTRIA2         9    2020       7      11      10                                
CTRIA2        10    2020       7       8      11                                
CTRIA2        11    2025       8      12      11                                
CTRIA2        12    2025       8       9      12                                
CYJOIN  1               121     101     113     123     103     115             
CYJOIN  2               127     107     119     125     105     117             
EIGC    20      HESS    MAX                                             +EIGC20 
+EIGC20                                                 4                       
EIGR    10      INV     200.0   2000.0  8       5                       +EIGR10 
+EIGR10 MAX                                                                     
FLFACT  1       .059164 .118328 .177492                                         
FLFACT  2       180.0                                                           
FLFACT  3       0.3     0.7     1.0                                             
FLUTTER 30      K       1       2       3       L       4                       
GRID           1         -0.8979 -0.2814  3.7712                                
GRID           2          0.0001  0.0516  4.0003                                
GRID           3          0.8981 -0.2461  4.1795                                
GRID           4         -0.7726 -0.4744  5.4413                                
GRID           5         -0.0031  0.0228  5.5033                                
GRID           6          0.7797  0.2247  5.4889                                
GRID           7         -0.6646 -0.7082  7.3062                                
GRID           8         -0.0157  0.0164  7.4058                                
GRID           9          0.6303  0.5962  7.3237                                
GRID          10         -0.5237 -1.1552  9.8520                                
GRID          11         -0.0320 -0.0656 10.0079                                
GRID          12          0.4130  0.7329  9.9093                                
GRID    101     1       2.375   4.186   -0.987  1                               
GRID    103     1       2.375   4.186   0.987   1                               
GRID    104     1       2.375   0.0     0.987   1                               
GRID    105     1       2.375   -4.186  0.987   1                               
GRID    107     1       2.375   -4.186  -0.987  1                               
GRID    108     1       2.375   0.0     -0.987  1                               
GRID    113     1       3.982   4.186   -0.987  1                               
GRID    115     1       4.539   4.186   0.987   1                               
$ ... 10 like lines cut
MAT1    1       31.0E6          0.3     7.300E-4                                
MKAERO1 180.0                                                           +MKA1   
+MKA1   0.3     0.7     1.0                                                     
MPC     600     1       1       1.0     2       1       -1.0                    
MPC     600     1       2       1.0     2       2       -1.0                    
MPC     600     1       3       1.0     2       3       -1.0                    
MPC     600     1       4       1.0     2       4       -1.0                    
MPC     600     1       5       1.0     2       5       -1.0                    
MPC     600     1       6       1.0     2       6       -1.0                    
MPC     600     3       1       1.0     2       1       -1.0                    
MPC     600     3       2       1.0     2       2       -1.0                    
MPC     600     3       3       1.0     2       3       -1.0                    
MPC     600     3       4       1.0     2       4       -1.0                    
MPC     600     3       5       1.0     2       5       -1.0                    
MPC     600     3       6       1.0     2       6       -1.0                    
MPC     600     116     1       1.0     2       1       -1.0                    
MPC     600     116     2       1.0     2       2       -1.0                    
MPC     600     116     3       1.0     2       3       -1.0                    
MPC     600     120     1       1.0     2       1       -1.0                    
MPC     600     120     2       1.0     2       2       -1.0                    
MPC     600     120     3       1.0     2       3       -1.0                    
PARAM   CTYPE   ROT                                                             
PARAM   IREF    4                                                               
PARAM   KGGIN   -1                                                              
PARAM   KINDEX  0                                                               
PARAM   LMODES  4                                                               
PARAM   MAXMACH 0.90                                                            
PARAM   MINMACH 1.00                                                            
PARAM   MTYPE   COSINE                                                          
PARAM   NSEGS   43                                                              
PARAM   PRINT   YESB                                                            
PTRIA2      2000       1  0.1040      0.                                        
PTRIA2      2005       1  0.1040      0.                                        
PTRIA2      2010       1  0.0707      0.                                        
PTRIA2      2015       1  0.0707      0.                                        
PTRIA2      2020       1  0.0422      0.                                        
PTRIA2      2025       1  0.0422      0.                                        
SPC1    500     23      121     123     124     125     127     128             
SPC1    500     45      7       10      12                                      
SPC1    500     456     101     103     104     105     107     108             
SPC1    500     456     113     115     116     117     119     120             
SPC1    500     456     121     123     124     125     127     128             
STREAML1       1       1       2       3                                        
STREAML1       2       4       5       6                                        
STREAML1       3       7       8       9                                        
STREAML1       4      10      11      12                                        
STREAML2       1       3   2.739 1.79600 3.98420 0.582170.6568460.069472+STRL 1 
+STRL 1   719.0  47.423                                                         
STREAML2       2       3  23.534 1.85044 6.06853 0.886740.9343880.066610+STRL 2 
+STRL 2  1014.2  55.107                                                         
STREAML2       3       3  44.697 1.86419 8.07620 1.180101.1936660.064685+STRL 3 
+STRL 3  1288.1  60.380                                                         
STREAML2       4       3  62.028 1.86958 9.92791 1.450671.5022760.059201+STRL 4 
+STRL 4  1592.6  60.687                                                         
ENDDATA                                                                         
