NASTRAN SYSTEM(93)=1, FILES=PLT2                                                
ID    T09061A,NASTRAN                                                           
APP   AERO                                                                      
SOL   9                                                                         
DIAG  14                                                                        
TIME  1000                                                                      
CEND                                                                            
TITLE    = MODAL FLUTTER ANALYSIS OF AN ADVANCED TURBOPROP                      
SUBTITLE = NASTRAN TEST PROBLEM NO. T09-06-1A                                   
LABEL    = 10 BLADES, 6800 RPM, .70 TUNNEL MACH NO.                             
$                                                                               
SPC      = 1                                                                    
METHOD   = 1                                                                    
FMETHOD  = 1                                                                    
$                                                                               
OUTPUT(XYOUT)                                                                   
$                                                                               
PLOTTER NASTPLT D,0                                                             
XPAPER = 8.5                                                                    
YPAPER = 11.0                                                                   
YAXIS  = YES                                                                    
XINTERCEPT = 7046.0  $ OPERATING VELOCITY                                       
XTAXIS =  YES                                                                   
XBAXIS =  YES                                                                   
CURVELINESYMBOL = 6                                                             
XDIVISIONS   = 10                                                               
YTDIVISIONS  = 10                                                               
YBDIVISIONS  = 10                                                               
YTGRID LINES = YES                                                              
YBGRID LINES = YES                                                              
XTGRID LINES = YES                                                              
XBGRID LINES = YES                                                              
XTITLE  =     VELOCITY VSBAR , IN/SEC....REF VSBAR = 7046 IN/SEC, CASE 3        
YTTITLE =          DAMPING G                                                    
YBTITLE =     FREQUENCY F, HZ                                                   
TCURVE  =   K=.1,.2,.3,.6,.9,1.2,1.5,SIG=0.0                                    
XYPLOT,XYPRINT VG/ 1(G,F), 2(G,F), 3(G,F), 4(G,F), 5(G,F), 6(G,F)               
TCURVE  =   K=.1,.2,.3,.6,.9,1.2,1.5,SIG=36.0                                   
XYPLOT,XYPRINT VG/ 7(G,F), 8(G,F), 9(G,F),10(G,F),11(G,F),12(G,F)               
TCURVE  =   K=.1,.2,.3,.6,.9,1.2,1.5,SIG=72.0                                   
XYPLOT,XYPRINT VG/13(G,F),14(G,F),15(G,F),16(G,F),17(G,F),18(G,F)               
TCURVE  =   K=.1,.2,.3,.6,.9,1.2,1.5,SIG=108.0                                  
XYPLOT,XYPRINT VG/19(G,F),20(G,F),21(G,F),22(G,F),23(G,F),24(G,F)               
TCURVE  =   K=.1,.2,.3,.6,.9,1.2,1.5,SIG=144.0                                  
XYPLOT,XYPRINT VG/25(G,F),26(G,F),27(G,F),28(G,F),29(G,F),30(G,F)               
TCURVE  =   K=.1,.2,.3,.6,.9,1.2,1.5,SIG=180.0                                  
XYPLOT,XYPRINT VG/31(G,F),32(G,F),33(G,F),34(G,F),35(G,F),36(G,F)               
TCURVE  =   K=.1,.2,.3,.6,.9,1.2,1.5,SIG=-144.0                                 
XYPLOT,XYPRINT VG/37(G,F),38(G,F),39(G,F),40(G,F),41(G,F),42(G,F)               
TCURVE  =   K=.1,.2,.3,.6,.9,1.2,1.5,SIG=-108.0                                 
XYPLOT,XYPRINT VG/43(G,F),44(G,F),45(G,F),46(G,F),47(G,F),48(G,F)               
TCURVE  =   K=.1,.2,.3,.6,.9,1.2,1.5,SIG=-72.0                                  
XYPLOT,XYPRINT VG/49(G,F),50(G,F),51(G,F),52(G,F),53(G,F),54(G,F)               
TCURVE  =   K=.1,.2,.3,.6,.9,1.2,1.5,SIG=-36.0                                  
XYPLOT,XYPRINT VG/55(G,F),56(G,F),57(G,F),58(G,F),59(G,F),60(G,F)               
BEGIN BULK                                                                      
CORD2R  1               0.0     0.0     0.0     -.0277  -.9996  0.0     +C2R1   
+C2R1   .9996   -.0277  0.0                                                     
GRDSET          1                               1                               
GRID*   1                                   2.419817E+00    1.244079E+01*GD    1
*GD    1   -2.031032E+00                                                        
GRID*   2                                   2.457173E+00    1.238143E+01*GD    2
*GD    2   -2.058249E+00                                                        
GRID*   3                                   2.551602E+00    1.225216E+01*GD    3
*GD    3   -2.114527E+00                                                        
GRID*   4                                   2.683628E+00    1.202870E+01*GD    4
*GD    4   -2.173213E+00                                                        
GRID*   5                                   2.865225E+00    1.172653E+01*GD    5
*GD    5   -2.216011E+00                                                        
GRID*   6                                   2.990463E+00    1.158475E+01*GD    6
*GD    6   -2.254392E+00                                                        
GRID*   7                                   3.126074E+00    1.140011E+01*GD    7
*GD    7   -2.266630E+00                                                        
GRID*   8                                   2.194761E+00    1.228047E+01*GD    8
*GD    8   -1.843213E+00                                                        
GRID*   9                                   2.250464E+00    1.216055E+01*GD    9
*GD    9   -1.876635E+00                                                        
GRID*   10                                  2.377542E+00    1.206568E+01*GD   10
*GD   10   -1.963854E+00                                                        
GRID*   11                                  2.548495E+00    1.179959E+01*GD   11
*GD   11   -2.027197E+00                                                        
GRID*   12                                  2.733165E+00    1.150046E+01*GD   12
*GD   12   -2.066389E+00                                                        
GRID*   13                                  2.832836E+00    1.132142E+01*GD   13
*GD   13   -2.069136E+00                                                        
GRID*   14                                  2.996484E+00    1.108674E+01*GD   14
*GD   14   -2.097482E+00                                                        
GRID*   15                                  1.964924E+00    1.211923E+01*GD   15
*GD   15   -1.666834E+00                                                        
GRID*   16                                  2.043783E+00    1.199233E+01*GD   16
*GD   16   -1.720535E+00                                                        
GRID*   17                                  2.109893E+00    1.187122E+01*GD   17
*GD   17   -1.744548E+00                                                        
GRID*   18                                  2.348317E+00    1.154853E+01*GD   18
*GD   18   -1.835006E+00                                                        
GRID*   19                                  2.540135E+00    1.125291E+01*GD   19
*GD   19   -1.870254E+00                                                        
GRID*   20                                  2.675576E+00    1.106813E+01*GD   20
*GD   20   -1.882862E+00                                                        
$ ... 270 like lines cut
PQUAD2    1     1       .012                                                    
PQUAD2    2     1       .024                                                    
PQUAD2    3     1       .032                                                    
PQUAD2    4     1       .036                                                    
PQUAD2    5     1       .030                                                    
PQUAD2    6     1       .018                                                    
PQUAD2    7     1       .014                                                    
PQUAD2    8     1       .028                                                    
PQUAD2    9     1       .037                                                    
PQUAD2   10     1       .043                                                    
PQUAD2   11     1       .036                                                    
PQUAD2   12     1       .022                                                    
PQUAD2   13     1       .016                                                    
PQUAD2   14     1       .032                                                    
PQUAD2   15     1       .048                                                    
PQUAD2   16     1       .051                                                    
PQUAD2   17     1       .042                                                    
PQUAD2   18     1       .023                                                    
PQUAD2   19     1       .018                                                    
PQUAD2   20     1       .034                                                    
$ ... 100 like lines cut
PTRIA2   111    1       .531                                                    
PTRIA2   112    1       .532                                                    
PTRIA2   113    1       .396                                                    
PTRIA2   114    1       .544                                                    
PTRIA2   115    1       .590                                                    
PTRIA2   116    1       .591                                                    
PTRIA2   117    1       .557                                                    
PTRIA2   118    1       .519                                                    
PTRIA2   119    1       .396                                                    
PTRIA2   120    1       .377                                                    
CQUAD2    1       1       1       2       9       8                             
CQUAD2    2       2       2       3      10       9                             
CQUAD2    3       3       3       4      11      10                             
CQUAD2    4       4       4       5      12      11                             
CQUAD2    5       5       5       6      13      12                             
CQUAD2    6       6       6       7      14      13                             
CQUAD2    7       7       8       9      16      15                             
CQUAD2    8       8       9      10      17      16                             
CQUAD2    9       9      10      11      18      17                             
CQUAD2   10      10      11      12      19      18                             
CQUAD2   11      11      12      13      20      19                             
CQUAD2   12      12      13      14      21      20                             
CQUAD2   13      13      15      16      23      22                             
CQUAD2   14      14      16      17      24      23                             
CQUAD2   15      15      17      18      25      24                             
CQUAD2   16      16      18      19      26      25                             
CQUAD2   17      17      19      20      27      26                             
CQUAD2   18      18      20      21      28      27                             
CQUAD2   19      19      22      23      30      29                             
CQUAD2   20      20      23      24      31      30                             
$ ... 100 like lines cut
CTRIA2  111     111     129     138     136                                     
CTRIA2  112     112     129     137     138                                     
CTRIA2  113     113     129     130     137                                     
CTRIA2  114     114     137     130     140                                     
CTRIA2  115     115     138     137     139                                     
CTRIA2  116     116     139     137     140                                     
CTRIA2  117     117     140     130     141                                     
CTRIA2  118     118     141     130     142                                     
CTRIA2  119     119     130     131     142                                     
CTRIA2  120     120     142     131     143                                     
MAT1    1        1.6  E7         .35    .0004141                                
SPC1    1       123456  151     THRU    155                                     
SPC1    1       6       7       91      98      134     145                     
SPC1    1       4       1       57                                              
RFORCE  1       0               113.34  1.0     0.0     0.0                     
EIGR    1       INV     100.0   2000.0  10      8                       +E1     
+E1     MAX                                                                     
CYJOIN  1               155                                                     
CYJOIN  2               151                                                     
PARAM   CTYPE   ROT                                                             
PARAM   KINDEX  0                                                               
PARAM   NSEGS   10                                                              
$                                                                               
$           AERODYNAMIC DATA FOR FLUTTER ANALYSIS                               
$                                                                               
AERO    0       1.0     2.905   9.763E-8                                        
FLFACT  1       1.0                                                             
FLFACT  2       0.0     36.0    72.0    108.0   144.0   180.0   -144.0  +FL21   
+FL21   -108.0  -72.    -36.                                                    
FLFACT  3       .10     .20     .30     .6      .9      1.2     1.5             
FLUTTER 1       KE      1       2       3       L       6                       
MKAERO2 0.0     .001    0.0     .3      0.0     .6      0.0     .9              
MKAERO2 36.     .001    36.     .3      36.     .6      36.     .9              
MKAERO2 72.     .001    72.     .3      72.     .6      72.     .9              
MKAERO2 108.    .001    108.    .3      108.    .6      108.    .9              
MKAERO2 144.    .001    144.    .3      144.    .6      144.    .9              
MKAERO2 180.    .001    180.    .3      180.    .6      180.    .9              
MKAERO2 -144.   .001    -144.   .3      -144.   .6      -144.   .9              
MKAERO2 -108.   .001    -108.   .3      -108.   .6      -108.   .9              
MKAERO2 -72.    .001    -72.    .3      -72.    .6      -72.    .9              
MKAERO2 -36.    .001    -36.    .3      -36.    .6      -36.    .9              
MKAERO2 0.0     1.2     0.0     1.5     0.0     .15                             
MKAERO2 36.     1.2     36.     1.5     36.0    .15                             
MKAERO2 72.     1.2     72.     1.5     72.0    .15                             
MKAERO2 108.    1.2     108.    1.5     108.    .15                             
MKAERO2 144.    1.2     144.    1.5     144.    .15                             
MKAERO2 180.    1.2     180.    1.5     180.    .15                             
MKAERO2 -144.   1.2     -144.   1.5     -144.   .15                             
MKAERO2 -108.   1.2     -108.   1.5     -108.   .15                             
MKAERO2 -72.    1.2     -72.    1.5     -72.    .15                             
MKAERO2 -36.    1.2     -36.    1.5     -36.    .15                             
PARAM   IREF    6                                                               
PARAM   LMODES  6                                                               
PARAM   MAXMACH 0.95                                                            
PARAM   MINMACH 1.01                                                            
PARAM   MTYPE   COSINE                                                          
PARAM   PRINT   YESB                                                            
STREAML1   1    134     136     143     145                                     
STREAML1   2    113     115     117     119                                     
STREAML1   3    99      101     103     105                                     
STREAML1   4    85      87      89      91                                      
STREAML1   5    71      73      75      77                                      
STREAML1   6    57      59      61      63                                      
STREAML1   7    43      45      47      49                                      
STREAML1   8    29      31      33      35                                      
STREAML1   9    15      17      19      21                                      
STREAML1   10   1       3       5       7                                       
STREAML2   1       4      11.075   3.028   0.278   1.626   0.6869.763E-8+STR   1
+STR   1   9152. -15.899                                                        
STREAML2   2       4      13.895   3.559   0.336   2.733   0.7349.763E-8+STR   4
+STR   4   9794.   2.890                                                        
STREAML2   3       4      14.946   4.129   0.152   3.818   0.7139.763E-8+STR   6
+STR   6   9512.  20.206                                                        
STREAML2   4       4      16.492   4.214  -0.355   5.068   0.6189.763E-8+STR   8
+STR   8   8246.  38.813                                                        
STREAML2   5       4      17.712   3.542  -0.389   5.825   0.5679.763E-8+STR  10
+STR  10   7558.  46.112                                                        
STREAML2   6       4      16.167   2.905  -0.367   6.423   0.5289.763E-8+STR  12
+STR  12   7046.  50.138                                                        
STREAML2   7       4      17.910   2.376  -0.316   6.915   0.5359.763E-8+STR  14
+STR  14   7139.  50.796                                                        
STREAML2   8       4      19.990   1.937  -0.369   7.350   0.5569.763E-8+STR  16
+STR  16   7419.  50.323                                                        
STREAML2   9       4      23.516   1.558  -0.294   7.682   0.5579.763E-8+STR  18
+STR  18   7424.  51.910                                                        
STREAML2  10       4      27.788   1.280  -0.541   7.913   0.5879.763E-8+STR  20
+STR  20   7830.  50.992                                                        
ENDDATA                                                                         
